16

C      0.41256    1.59188   -0.13676
C     -0.98465    1.29407    0.27677
C     -1.74394    0.34579   -0.22129
C     -0.09826   -1.68502    0.73747
C      1.09315   -1.43005    0.38671
C      1.08972    0.94963   -1.06021
H      0.92233    2.36176    0.43715
H     -1.36441    1.87424    1.11414
H     -2.61678   -0.04758    0.25555
H     -1.36163   -0.30329   -1.08531
H     -0.56496   -1.26718    1.66146
H     -0.82465   -2.22329    0.09236
H      1.77352   -0.76703    0.97260
H      1.51763   -1.72325   -0.59715
H      2.15453    0.96909   -1.15786
H      0.58908    0.11224   -1.66198
16

C      0.40938    1.59078   -0.13449
C     -0.98064    1.29450    0.27691
C     -1.73007    0.32807   -0.21367
C     -0.11089   -1.66552    0.72839
C      1.09077   -1.40841    0.37460
C      1.08974    0.92899   -1.04848
H      0.92176    2.36268    0.43563
H     -1.36513    1.87514    1.11265
H     -2.61366   -0.05129    0.25674
H     -1.36314   -0.30124   -1.08793
H     -0.56399   -1.26876    1.66188
H     -0.82354   -2.22404    0.09316
H      1.77360   -0.76878    0.97327
H      1.51747   -1.72431   -0.59596
H      2.15416    0.96463   -1.15563
H      0.58809    0.11441   -1.66476
16

C      0.40621    1.58967   -0.13222
C     -0.97662    1.29492    0.27704
C     -1.71620    0.31036   -0.20605
C     -0.12352   -1.64601    0.71931
C      1.08839   -1.38677    0.36248
C      1.08976    0.90834   -1.03675
H      0.92120    2.36360    0.43411
H     -1.36584    1.87603    1.11117
H     -2.61053   -0.05500    0.25792
H     -1.36466   -0.29918   -1.09055
H     -0.56302   -1.27033    1.66230
H     -0.82242   -2.22479    0.09396
H      1.77368   -0.77052    0.97393
H      1.51731   -1.72538   -0.59478
H      2.15379    0.96017   -1.15340
H      0.58710    0.11657   -1.66754
16

C      0.40304    1.58857   -0.12995
C     -0.97261    1.29535    0.27718
C     -1.70232    0.29264   -0.19843
C     -0.13615   -1.62651    0.71023
C      1.08601   -1.36513    0.35036
C      1.08978    0.88770   -1.02503
H      0.92063    2.36453    0.43259
H     -1.36656    1.87692    1.10968
H     -2.60741   -0.05871    0.25911
H     -1.36617   -0.29713   -1.09317
H     -0.56205   -1.27190    1.66272
H     -0.82130   -2.22555    0.09476
H      1.77376   -0.77227    0.97459
H      1.51716   -1.72644   -0.59359
H      2.15341    0.95570   -1.15117
H      0.58611    0.11874   -1.67032
16

C      0.39986    1.58746   -0.12768
C     -0.96860    1.29578    0.27732
C     -1.68845    0.27492   -0.19080
C     -0.14878   -1.60700    0.70115
C      1.08362   -1.34349    0.33824
C      1.08980    0.86705   -1.01330
H      0.92006    2.36545    0.43107
H     -1.36727    1.87782    1.10820
H     -2.60429   -0.06243    0.26029
H     -1.36769   -0.29508   -1.09579
H     -0.56108   -1.27347    1.66313
H     -0.82019   -2.22630    0.09555
H      1.77383   -0.77402    0.97525
H      1.51700   -1.72750   -0.59241
H      2.15304    0.95124   -1.14894
H      0.58512    0.12090   -1.67309
16

C      0.39669    1.58636   -0.12541
C     -0.96458    1.29621    0.27745
C     -1.67458    0.25721   -0.18318
C     -0.16141   -1.58750    0.69207
C      1.08124   -1.32185    0.32612
C      1.08982    0.84640   -1.00158
H      0.91950    2.36637    0.42954
H     -1.36799    1.87871    1.10671
H     -2.60117   -0.06614    0.26148
H     -1.36920   -0.29302   -1.09841
H     -0.56012   -1.27504    1.66355
H     -0.81907   -2.22705    0.09635
H      1.77391   -0.77577    0.97592
H      1.51684   -1.72857   -0.59122
H      2.15267    0.94677   -1.14671
H      0.58413    0.12306   -1.67587
16

C      0.39352    1.58525   -0.12314
C     -0.96057    1.29664    0.27759
C     -1.66070    0.23949   -0.17556
C     -0.17404   -1.56799    0.68299
C      1.07886   -1.30021    0.31401
C      1.08984    0.82576   -0.98985
H      0.91893    2.36729    0.42802
H     -1.36870    1.87961    1.10522
H     -2.59805   -0.06985    0.26267
H     -1.37072   -0.29097   -1.10103
H     -0.55915   -1.27661    1.66397
H     -0.81795   -2.22780    0.09715
H      1.77399   -0.77752    0.97658
H      1.51669   -1.72963   -0.59004
H      2.15229    0.94231   -1.14448
H      0.58314    0.12523   -1.67865
16

C      0.39034    1.58415   -0.12087
C     -0.95656    1.29707    0.27772
C     -1.64683    0.22178   -0.16793
C     -0.18668   -1.54849    0.67391
C      1.07648   -1.27857    0.30189
C      1.08986    0.80511   -0.97812
H      0.91836    2.36821    0.42650
H     -1.36942    1.88050    1.10374
H     -2.59492   -0.07357    0.26385
H     -1.37223   -0.28891   -1.10365
H     -0.55818   -1.27819    1.66439
H     -0.81684   -2.22856    0.09795
H      1.77407   -0.77927    0.97724
H      1.51653   -1.73069   -0.58886
H      2.15192    0.93784   -1.14225
H      0.58216    0.12739   -1.68143
16

C      0.38717    1.58304   -0.11860
C     -0.95255    1.29749    0.27786
C     -1.63296    0.20406   -0.16031
C     -0.19931   -1.52898    0.66483
C      1.07410   -1.25693    0.28977
C      1.08988    0.78447   -0.96640
H      0.91779    2.36913    0.42498
H     -1.37013    1.88139    1.10225
H     -2.59180   -0.07728    0.26504
H     -1.37374   -0.28686   -1.10627
H     -0.55721   -1.27976    1.66480
H     -0.81572   -2.22931    0.09874
H      1.77415   -0.78101    0.97791
H      1.51637   -1.73175   -0.58767
H      2.15155    0.93338   -1.14002
H      0.58117    0.12955   -1.68421
16

C      0.38400    1.58194   -0.11633
C     -0.94853    1.29792    0.27800
C     -1.61909    0.18635   -0.15269
C     -0.21194   -1.50948    0.65575
C      1.07172   -1.23529    0.27765
C      1.08990    0.76382   -0.95467
H      0.91723    2.37005    0.42346
H     -1.37085    1.88229    1.10077
H     -2.58868   -0.08099    0.26622
H     -1.37526   -0.28480   -1.10889
H     -0.55624   -1.28133    1.66522
H     -0.81461   -2.23006    0.09954
H      1.77422   -0.78276    0.97857
H      1.51621   -1.73282   -0.58649
H      2.15117    0.92891   -1.13779
H      0.58018    0.13172   -1.68698
16

C      0.38082    1.58083   -0.11406
C     -0.94452    1.29835    0.27813
C     -1.60521    0.16863   -0.14507
C     -0.22457   -1.48997    0.64667
C      1.06934   -1.21365    0.26553
C      1.08992    0.74318   -0.94294
H      0.91666    2.37097    0.42194
H     -1.37157    1.88318    1.09928
H     -2.58556   -0.08470    0.26741
H     -1.37677   -0.28275   -1.11151
H     -0.55527   -1.28290    1.66564
H     -0.81349   -2.23081    0.10034
H      1.77430   -0.78451    0.97923
H      1.51606   -1.73388   -0.58530
H      2.15080    0.92445   -1.13556
H      0.57919    0.13388   -1.68976
16

C      0.37765    1.57973   -0.11179
C     -0.94051    1.29878    0.27827
C     -1.59134    0.15092   -0.13744
C     -0.23720   -1.47047    0.63759
C      1.06695   -1.19201    0.25342
C      1.08994    0.72253   -0.93122
H      0.91609    2.37189    0.42041
H     -1.37228    1.88407    1.09780
H     -2.58244   -0.08842    0.26859
H     -1.37829   -0.28070   -1.11413
H     -0.55431   -1.28447    1.66606
H     -0.81237   -2.23156    0.10114
H      1.77438   -0.78626    0.97990
H      1.51590   -1.73494   -0.58412
H      2.15043    0.91998   -1.13333
H      0.57820    0.13604   -1.69254
16

C      0.37447    1.57862   -0.10952
C     -0.93649    1.29921    0.27841
C     -1.57747    0.13320   -0.12982
C     -0.24983   -1.45096    0.62851
C      1.06457   -1.17037    0.24130
C      1.08996    0.70189   -0.91949
H      0.91552    2.37281    0.41889
H     -1.37300    1.88497    1.09631
H     -2.57931   -0.09213    0.26978
H     -1.37980   -0.27864   -1.11675
H     -0.55334   -1.28605    1.66647
H     -0.81126   -2.23232    0.10193
H      1.77446   -0.78801    0.98056
H      1.51574   -1.73601   -0.58293
H      2.15005    0.91552   -1.13110
H      0.57721    0.13821   -1.69532
16

C      0.37130    1.57752   -0.10725
C     -0.93248    1.29964    0.27854
C     -1.56360    0.11549   -0.12220
C     -0.26246   -1.43146    0.61943
C      1.06219   -1.14872    0.22918
C      1.08998    0.68124   -0.90776
H      0.91496    2.37373    0.41737
H     -1.37371    1.88586    1.09483
H     -2.57619   -0.09584    0.27097
H     -1.38132   -0.27659   -1.11937
H     -0.55237   -1.28762    1.66689
H     -0.81014   -2.23307    0.10273
H      1.77453   -0.78975    0.98122
H      1.51558   -1.73707   -0.58175
H      2.14968    0.91106   -1.12887
H      0.57622    0.14037   -1.69810
16

C      0.36813    1.57641   -0.10498
C     -0.92847    1.30006    0.27868
C     -1.54972    0.09777   -0.11458
C     -0.27509   -1.41195    0.61035
C      1.05981   -1.12708    0.21706
C      1.09000    0.66060   -0.89604
H      0.91439    2.37465    0.41585
H     -1.37443    1.88676    1.09334
H     -2.57307   -0.09955    0.27215
H     -1.38283   -0.27453   -1.12199
H     -0.55140   -1.28919    1.66731
H     -0.80902   -2.23382    0.10353
H      1.77461   -0.79150    0.98188
H      1.51543   -1.73813   -0.58056
H      2.14931    0.90659   -1.12664
H      0.57523    0.14253   -1.70087
16

C      0.36495    1.57531   -0.10271
C     -0.92445    1.30049    0.27882
C     -1.53585    0.08005   -0.10695
C     -0.28773   -1.39245    0.60127
C      1.05743   -1.10544    0.20495
C      1.09002    0.63995   -0.88431
H      0.91382    2.37558    0.41433
H     -1.37514    1.88765    1.09186
H     -2.56995   -0.10327    0.27334
H     -1.38434   -0.27248   -1.12462
H     -0.55043   -1.29076    1.66773
H     -0.80791   -2.23457    0.10433
H      1.77469   -0.79325    0.98255
H      1.51527   -1.73920   -0.57938
H      2.14893    0.90213   -1.12441
H      0.57424    0.14470   -1.70365
16

C      0.36178    1.57420   -0.10044
C     -0.92044    1.30092    0.27895
C     -1.52198    0.06234   -0.09933
C     -0.30036   -1.37294    0.59219
C      1.05505   -1.08380    0.19283
C      1.09004    0.61931   -0.87259
H      0.91325    2.37650    0.41281
H     -1.37586    1.88854    1.09037
H     -2.56682   -0.10698    0.27452
H     -1.38586   -0.27042   -1.12724
H     -0.54946   -1.29233    1.66814
H     -0.80679   -2.23532    0.10513
H      1.77477   -0.79500    0.98321
H      1.51511   -1.74026   -0.57819
H      2.14856    0.89766   -1.12218
H      0.57326    0.14686   -1.70643
16

C      0.35861    1.57310   -0.09817
C     -0.91643    1.30135    0.27909
C     -1.50811    0.04462   -0.09171
C     -0.31299   -1.35343    0.58311
C      1.05267   -1.06216    0.18071
C      1.09006    0.59866   -0.86086
H      0.91269    2.37742    0.41128
H     -1.37657    1.88944    1.08889
H     -2.56370   -0.11069    0.27571
H     -1.38737   -0.26837   -1.12986
H     -0.54850   -1.29390    1.66856
H     -0.80567   -2.23608    0.10592
H      1.77484   -0.79675    0.98387
H      1.51495   -1.74132   -0.57701
H      2.14819    0.89320   -1.11995
H      0.57227    0.14903   -1.70921
16

C      0.35543    1.57199   -0.09590
C     -0.91241    1.30178    0.27923
C     -1.49423    0.02691   -0.08408
C     -0.32562   -1.33393    0.57403
C      1.05028   -1.04052    0.16859
C      1.09008    0.57801   -0.84913
H      0.91212    2.37834    0.40976
H     -1.37729    1.89033    1.08740
H     -2.56058   -0.11440    0.27689
H     -1.38889   -0.26631   -1.13248
H     -0.54753   -1.29548    1.66898
H     -0.80456   -2.23683    0.10672
H      1.77492   -0.79850    0.98454
H      1.51480   -1.74238   -0.57583
H      2.14781    0.88873   -1.11772
H      0.57128    0.15119   -1.71198
16

C      0.35226    1.57089   -0.09363
C     -0.90840    1.30221    0.27936
C     -1.48036    0.00919   -0.07646
C     -0.33825   -1.31442    0.56496
C      1.04790   -1.01888    0.15647
C      1.09010    0.55737   -0.83741
H      0.91155    2.37926    0.40824
H     -1.37801    1.89123    1.08592
H     -2.55746   -0.11812    0.27808
H     -1.39040   -0.26426   -1.13510
H     -0.54656   -1.29705    1.66940
H     -0.80344   -2.23758    0.10752
H      1.77500   -0.80024    0.98520
H      1.51464   -1.74345   -0.57464
H      2.14744    0.88427   -1.11549
H      0.57029    0.15335   -1.71476
16

C      0.34909    1.56979   -0.09136
C     -0.90439    1.30263    0.27950
C     -1.46649   -0.00852   -0.06884
C     -0.35088   -1.29492    0.55588
C      1.04552   -0.99724    0.14436
C      1.09012    0.53672   -0.82568
H      0.91098    2.38018    0.40672
H     -1.37872    1.89212    1.08443
H     -2.55434   -0.12183    0.27927
H     -1.39192   -0.26221   -1.13772
H     -0.54559   -1.29862    1.66981
H     -0.80232   -2.23833    0.10832
H      1.77508   -0.80199    0.98586
H      1.51448   -1.74451   -0.57346
H      2.14707    0.87980   -1.11326
H      0.56930    0.15552   -1.71754
16

C      0.35226    1.57089   -0.09363
C     -0.90840    1.30221    0.27936
C     -1.48036    0.00919   -0.07646
C     -0.33825   -1.31442    0.56496
C      1.04790   -1.01888    0.15647
C      1.09010    0.55737   -0.83741
H      0.91155    2.37926    0.40824
H     -1.37801    1.89123    1.08592
H     -2.55746   -0.11812    0.27808
H     -1.39040   -0.26426   -1.13510
H     -0.54656   -1.29705    1.66940
H     -0.80344   -2.23758    0.10752
H      1.77500   -0.80024    0.98520
H      1.51464   -1.74345   -0.57464
H      2.14744    0.88427   -1.11549
H      0.57029    0.15335   -1.71476
16

C      0.35543    1.57199   -0.09590
C     -0.91241    1.30178    0.27923
C     -1.49423    0.02691   -0.08408
C     -0.32562   -1.33393    0.57403
C      1.05028   -1.04052    0.16859
C      1.09008    0.57801   -0.84913
H      0.91212    2.37834    0.40976
H     -1.37729    1.89033    1.08740
H     -2.56058   -0.11440    0.27689
H     -1.38889   -0.26631   -1.13248
H     -0.54753   -1.29548    1.66898
H     -0.80456   -2.23683    0.10672
H      1.77492   -0.79850    0.98454
H      1.51480   -1.74238   -0.57583
H      2.14781    0.88873   -1.11772
H      0.57128    0.15119   -1.71198
16

C      0.35861    1.57310   -0.09817
C     -0.91643    1.30135    0.27909
C     -1.50811    0.04462   -0.09171
C     -0.31299   -1.35343    0.58311
C      1.05267   -1.06216    0.18071
C      1.09006    0.59866   -0.86086
H      0.91269    2.37742    0.41128
H     -1.37657    1.88944    1.08889
H     -2.56370   -0.11069    0.27571
H     -1.38737   -0.26837   -1.12986
H     -0.54850   -1.29390    1.66856
H     -0.80567   -2.23608    0.10592
H      1.77484   -0.79675    0.98387
H      1.51495   -1.74132   -0.57701
H      2.14819    0.89320   -1.11995
H      0.57227    0.14903   -1.70921
16

C      0.36178    1.57420   -0.10044
C     -0.92044    1.30092    0.27895
C     -1.52198    0.06234   -0.09933
C     -0.30036   -1.37294    0.59219
C      1.05505   -1.08380    0.19283
C      1.09004    0.61931   -0.87259
H      0.91325    2.37650    0.41281
H     -1.37586    1.88854    1.09037
H     -2.56682   -0.10698    0.27452
H     -1.38586   -0.27042   -1.12724
H     -0.54946   -1.29233    1.66814
H     -0.80679   -2.23532    0.10513
H      1.77477   -0.79500    0.98321
H      1.51511   -1.74026   -0.57819
H      2.14856    0.89766   -1.12218
H      0.57326    0.14686   -1.70643
16

C      0.36495    1.57531   -0.10271
C     -0.92445    1.30049    0.27882
C     -1.53585    0.08005   -0.10695
C     -0.28773   -1.39245    0.60127
C      1.05743   -1.10544    0.20495
C      1.09002    0.63995   -0.88431
H      0.91382    2.37558    0.41433
H     -1.37514    1.88765    1.09186
H     -2.56995   -0.10327    0.27334
H     -1.38434   -0.27248   -1.12462
H     -0.55043   -1.29076    1.66773
H     -0.80791   -2.23457    0.10433
H      1.77469   -0.79325    0.98255
H      1.51527   -1.73920   -0.57938
H      2.14893    0.90213   -1.12441
H      0.57424    0.14470   -1.70365
16

C      0.36813    1.57641   -0.10498
C     -0.92847    1.30006    0.27868
C     -1.54972    0.09777   -0.11458
C     -0.27509   -1.41195    0.61035
C      1.05981   -1.12708    0.21706
C      1.09000    0.66060   -0.89604
H      0.91439    2.37465    0.41585
H     -1.37443    1.88676    1.09334
H     -2.57307   -0.09955    0.27215
H     -1.38283   -0.27453   -1.12199
H     -0.55140   -1.28919    1.66731
H     -0.80902   -2.23382    0.10353
H      1.77461   -0.79150    0.98188
H      1.51543   -1.73813   -0.58056
H      2.14931    0.90659   -1.12664
H      0.57523    0.14253   -1.70087
16

C      0.37130    1.57752   -0.10725
C     -0.93248    1.29964    0.27854
C     -1.56360    0.11549   -0.12220
C     -0.26246   -1.43146    0.61943
C      1.06219   -1.14872    0.22918
C      1.08998    0.68124   -0.90776
H      0.91496    2.37373    0.41737
H     -1.37371    1.88586    1.09483
H     -2.57619   -0.09584    0.27097
H     -1.38132   -0.27659   -1.11937
H     -0.55237   -1.28762    1.66689
H     -0.81014   -2.23307    0.10273
H      1.77453   -0.78975    0.98122
H      1.51558   -1.73707   -0.58175
H      2.14968    0.91106   -1.12887
H      0.57622    0.14037   -1.69810
16

C      0.37447    1.57862   -0.10952
C     -0.93649    1.29921    0.27841
C     -1.57747    0.13320   -0.12982
C     -0.24983   -1.45096    0.62851
C      1.06457   -1.17037    0.24130
C      1.08996    0.70189   -0.91949
H      0.91552    2.37281    0.41889
H     -1.37300    1.88497    1.09631
H     -2.57931   -0.09213    0.26978
H     -1.37980   -0.27864   -1.11675
H     -0.55334   -1.28605    1.66647
H     -0.81126   -2.23232    0.10193
H      1.77446   -0.78801    0.98056
H      1.51574   -1.73601   -0.58293
H      2.15005    0.91552   -1.13110
H      0.57721    0.13821   -1.69532
16

C      0.37765    1.57973   -0.11179
C     -0.94051    1.29878    0.27827
C     -1.59134    0.15092   -0.13744
C     -0.23720   -1.47047    0.63759
C      1.06695   -1.19201    0.25342
C      1.08994    0.72253   -0.93122
H      0.91609    2.37189    0.42041
H     -1.37228    1.88407    1.09780
H     -2.58244   -0.08842    0.26859
H     -1.37829   -0.28070   -1.11413
H     -0.55431   -1.28447    1.66606
H     -0.81237   -2.23156    0.10114
H      1.77438   -0.78626    0.97990
H      1.51590   -1.73494   -0.58412
H      2.15043    0.91998   -1.13333
H      0.57820    0.13604   -1.69254
16

C      0.38082    1.58083   -0.11406
C     -0.94452    1.29835    0.27813
C     -1.60521    0.16863   -0.14507
C     -0.22457   -1.48997    0.64667
C      1.06934   -1.21365    0.26553
C      1.08992    0.74318   -0.94294
H      0.91666    2.37097    0.42194
H     -1.37157    1.88318    1.09928
H     -2.58556   -0.08470    0.26741
H     -1.37677   -0.28275   -1.11151
H     -0.55527   -1.28290    1.66564
H     -0.81349   -2.23081    0.10034
H      1.77430   -0.78451    0.97923
H      1.51606   -1.73388   -0.58530
H      2.15080    0.92445   -1.13556
H      0.57919    0.13388   -1.68976
16

C      0.38400    1.58194   -0.11633
C     -0.94853    1.29792    0.27800
C     -1.61909    0.18635   -0.15269
C     -0.21194   -1.50948    0.65575
C      1.07172   -1.23529    0.27765
C      1.08990    0.76382   -0.95467
H      0.91723    2.37005    0.42346
H     -1.37085    1.88229    1.10077
H     -2.58868   -0.08099    0.26622
H     -1.37526   -0.28480   -1.10889
H     -0.55624   -1.28133    1.66522
H     -0.81461   -2.23006    0.09954
H      1.77422   -0.78276    0.97857
H      1.51621   -1.73282   -0.58649
H      2.15117    0.92891   -1.13779
H      0.58018    0.13172   -1.68698
16

C      0.38717    1.58304   -0.11860
C     -0.95255    1.29749    0.27786
C     -1.63296    0.20406   -0.16031
C     -0.19931   -1.52898    0.66483
C      1.07410   -1.25693    0.28977
C      1.08988    0.78447   -0.96640
H      0.91779    2.36913    0.42498
H     -1.37013    1.88139    1.10225
H     -2.59180   -0.07728    0.26504
H     -1.37374   -0.28686   -1.10627
H     -0.55721   -1.27976    1.66480
H     -0.81572   -2.22931    0.09874
H      1.77415   -0.78101    0.97791
H      1.51637   -1.73175   -0.58767
H      2.15155    0.93338   -1.14002
H      0.58117    0.12955   -1.68421
16

C      0.39034    1.58415   -0.12087
C     -0.95656    1.29707    0.27772
C     -1.64683    0.22178   -0.16793
C     -0.18668   -1.54849    0.67391
C      1.07648   -1.27857    0.30189
C      1.08986    0.80511   -0.97812
H      0.91836    2.36821    0.42650
H     -1.36942    1.88050    1.10374
H     -2.59492   -0.07357    0.26385
H     -1.37223   -0.28891   -1.10365
H     -0.55818   -1.27819    1.66439
H     -0.81684   -2.22856    0.09795
H      1.77407   -0.77927    0.97724
H      1.51653   -1.73069   -0.58886
H      2.15192    0.93784   -1.14225
H      0.58216    0.12739   -1.68143
16

C      0.39352    1.58525   -0.12314
C     -0.96057    1.29664    0.27759
C     -1.66070    0.23949   -0.17556
C     -0.17404   -1.56799    0.68299
C      1.07886   -1.30021    0.31401
C      1.08984    0.82576   -0.98985
H      0.91893    2.36729    0.42802
H     -1.36870    1.87961    1.10522
H     -2.59805   -0.06985    0.26267
H     -1.37072   -0.29097   -1.10103
H     -0.55915   -1.27661    1.66397
H     -0.81795   -2.22780    0.09715
H      1.77399   -0.77752    0.97658
H      1.51669   -1.72963   -0.59004
H      2.15229    0.94231   -1.14448
H      0.58314    0.12523   -1.67865
16

C      0.39669    1.58636   -0.12541
C     -0.96458    1.29621    0.27745
C     -1.67458    0.25721   -0.18318
C     -0.16141   -1.58750    0.69207
C      1.08124   -1.32185    0.32612
C      1.08982    0.84640   -1.00158
H      0.91950    2.36637    0.42954
H     -1.36799    1.87871    1.10671
H     -2.60117   -0.06614    0.26148
H     -1.36920   -0.29302   -1.09841
H     -0.56012   -1.27504    1.66355
H     -0.81907   -2.22705    0.09635
H      1.77391   -0.77577    0.97592
H      1.51684   -1.72857   -0.59122
H      2.15267    0.94677   -1.14671
H      0.58413    0.12306   -1.67587
16

C      0.39986    1.58746   -0.12768
C     -0.96860    1.29578    0.27732
C     -1.68845    0.27492   -0.19080
C     -0.14878   -1.60700    0.70115
C      1.08362   -1.34349    0.33824
C      1.08980    0.86705   -1.01330
H      0.92006    2.36545    0.43107
H     -1.36727    1.87782    1.10820
H     -2.60429   -0.06243    0.26029
H     -1.36769   -0.29508   -1.09579
H     -0.56108   -1.27347    1.66313
H     -0.82019   -2.22630    0.09555
H      1.77383   -0.77402    0.97525
H      1.51700   -1.72750   -0.59241
H      2.15304    0.95124   -1.14894
H      0.58512    0.12090   -1.67309
16

C      0.40304    1.58857   -0.12995
C     -0.97261    1.29535    0.27718
C     -1.70232    0.29264   -0.19843
C     -0.13615   -1.62651    0.71023
C      1.08601   -1.36513    0.35036
C      1.08978    0.88770   -1.02503
H      0.92063    2.36453    0.43259
H     -1.36656    1.87692    1.10968
H     -2.60741   -0.05871    0.25911
H     -1.36617   -0.29713   -1.09317
H     -0.56205   -1.27190    1.66272
H     -0.82130   -2.22555    0.09476
H      1.77376   -0.77227    0.97459
H      1.51716   -1.72644   -0.59359
H      2.15341    0.95570   -1.15117
H      0.58611    0.11874   -1.67032
16

C      0.40621    1.58967   -0.13222
C     -0.97662    1.29492    0.27704
C     -1.71620    0.31036   -0.20605
C     -0.12352   -1.64601    0.71931
C      1.08839   -1.38677    0.36248
C      1.08976    0.90834   -1.03675
H      0.92120    2.36360    0.43411
H     -1.36584    1.87603    1.11117
H     -2.61053   -0.05500    0.25792
H     -1.36466   -0.29918   -1.09055
H     -0.56302   -1.27033    1.66230
H     -0.82242   -2.22479    0.09396
H      1.77368   -0.77052    0.97393
H      1.51731   -1.72538   -0.59478
H      2.15379    0.96017   -1.15340
H      0.58710    0.11657   -1.66754
16

C      0.40938    1.59078   -0.13449
C     -0.98064    1.29450    0.27691
C     -1.73007    0.32807   -0.21367
C     -0.11089   -1.66552    0.72839
C      1.09077   -1.40841    0.37460
C      1.08974    0.92899   -1.04848
H      0.92176    2.36268    0.43563
H     -1.36513    1.87514    1.11265
H     -2.61366   -0.05129    0.25674
H     -1.36314   -0.30124   -1.08793
H     -0.56399   -1.26876    1.66188
H     -0.82354   -2.22404    0.09316
H      1.77360   -0.76878    0.97327
H      1.51747   -1.72431   -0.59596
H      2.15416    0.96463   -1.15563
H      0.58809    0.11441   -1.66476
