14
Coordinates from ORCA-job r0_C5H7O2_opt_orca
  O   -2.58135924195095     -0.38940613190887      0.74707095900463
  O   -1.35599754640581      0.21692513282035      1.15456884238124
  C   -0.62180302444942      0.48700608415690     -0.02399778517042
  C   0.58041863177302      1.28610268058923      0.38274866186993
  C   1.74186517577437      0.59366292887844      0.06719868426881
  C   1.44889010785205     -0.61504370927682     -0.55283037314795
  C   -0.03338685729666     -0.77653911937313     -0.69196365769112
  H   -2.58594130500418     -1.17020508956422      1.31692076682107
  H   -1.28414955135527      1.04646811962874     -0.71179935737588
  H   0.51178547609124      2.25427825698075      0.87901556494196
  H   2.75174453513098      0.95499832228381      0.27336627873399
  H   2.18294599069703     -1.34227179924851     -0.90358870049586
  H   -0.33739950196301     -0.86676909030891     -1.74925864540516
  H   -0.41761287889338     -1.67910657565777     -0.18745123873522
