14
Coordinates from ORCA-job 16_0_orca
  O   -2.45904451000000      0.07451510000000      1.55079977000000
  O   -0.53773821000000     -0.30100126000000      0.83921307000000
  C   -0.72933499000000      0.21161368000000     -0.44956484000000
  C   0.15105134000000      0.90423217000000      0.52236619000000
  C   1.52352217000000      0.43558197000000      0.27037540000000
  C   1.37121589000000     -0.61969740000000     -0.53164472000000
  C   0.10570341000000     -0.66196657000000     -1.32536638000000
  H   -2.08023587000000      0.13522306000000      2.43586844000000
  H   -1.72836765000000      0.57455436000000     -0.70455185000000
  H   -0.15542611000000      1.78970954000000      1.08308956000000
  H   2.41632792000000      0.71631215000000      0.82728671000000
  H   2.18807453000000     -1.30985957000000     -0.76784025000000
  H   0.27032735000000     -0.28101568000000     -2.34772871000000
  H   -0.33607528000000     -1.66810546000000     -1.40230629000000
