14
Generated by autodE on: 2025-05-23. charge = 0 mult = 2 
O     -2.54858   -0.59262    0.75290
O     -1.32260    0.03515    1.12654
C     -0.59636    0.39400   -0.03027
C      0.56634    1.22007    0.42274
C      1.74647    0.61541    0.05293
C      1.51215   -0.55456   -0.63198
C      0.05096   -0.81028   -0.74916
H     -3.05201   -0.55049    1.57591
H     -1.27004    0.95252   -0.69945
H      0.44485    2.12137    0.99005
H      2.72299    1.01299    0.26909
H      2.25527   -1.21480   -1.03854
H     -0.26877   -0.89051   -1.79072
H     -0.24067   -1.73815   -0.25004
