14
Coordinates from ORCA-job path_opt5_orca
  O   -2.31759075589776      0.53573283336643      1.74437431157564
  O   -0.50785902819714     -0.31909811422008      0.82454271147822
  C   -0.73625203581712      0.18816022976247     -0.46064071901532
  C   0.14221659176623      0.90443020476445      0.49828929395417
  C   1.52213943189039      0.45177736601819      0.25353939666455
  C   1.37506053951960     -0.61628098690558     -0.53230447129383
  C   0.11358286450249     -0.67483299616631     -1.33289844762782
  H   -2.22536682191573     -0.22554205552449      2.33972787011558
  H   -1.75647653819425      0.50900411236707     -0.68405368095494
  H   -0.18356254881820      1.78162901070564      1.05949051714416
  H   2.40838871485001      0.74674171327736      0.81367300641250
  H   2.19855511541938     -1.30329028951502     -0.75558640217710
  H   0.28042307871581     -0.29107330166796     -2.35376984921633
  H   -0.31325860782372     -1.68725773626216     -1.41438355705949
