14
Generated by autodE on: 2025-05-23. charge = 0 mult = 2 
O     -2.34860    0.41981    1.66442
O     -0.55261   -0.21689    0.81067
C     -0.70422    0.21842   -0.49827
C      0.14574    0.94846    0.46481
C      1.51357    0.41979    0.30872
C      1.39167   -0.64010   -0.47978
C      0.15849   -0.69331   -1.32094
H     -2.40964   -0.23399    2.36003
H     -1.68518    0.56535   -0.78344
H     -0.14550    1.86348    0.95353
H      2.34587    0.69600    0.92535
H      2.20336   -1.32105   -0.69315
H      0.35546   -0.33198   -2.33188
H     -0.26842   -1.69388   -1.38004
