14
Generated by autodE on: 2025-05-23. charge = 0 mult = 2 
O     -2.51745   -0.74947    0.88283
O     -1.18250    0.14609    1.07801
C     -0.62178    0.46262   -0.14687
C      0.54506    1.28368    0.31933
C      1.71203    0.57241    0.12792
C      1.46609   -0.61031   -0.52677
C      0.02126   -0.75176   -0.84345
H     -2.83017   -0.72015    1.79099
H     -1.33785    1.00392   -0.78062
H      0.42315    2.21696    0.83178
H      2.68499    0.91282    0.43800
H      2.20008   -1.34440   -0.80443
H     -0.15527   -0.74904   -1.92214
H     -0.40765   -1.67328   -0.44458
