14
Coordinates from ORCA-job 6_0_orca
  O   -2.23194936000000     -0.89446533000000      1.09448714000000
  O   -0.70500362000000      0.04999842000000      0.98377157000000
  C   -0.66413939000000      0.52785607000000     -0.31644492000000
  C   0.47334684000000      1.35635140000000      0.19272770000000
  C   1.59192290000000      0.49838037000000      0.22708127000000
  C   1.22258174000000     -0.70105726000000     -0.33556634000000
  C   -0.06166032000000     -0.61769035000000     -1.09215016000000
  H   -2.23257191000000     -0.79713248000000      2.05951128000000
  H   -1.58067369000000      1.01868540000000     -0.67196681000000
  H   0.36381974000000      2.34312992000000      0.64305600000000
  H   2.53786484000000      0.70163553000000      0.73033325000000
  H   1.87177444000000     -1.58018965000000     -0.36281047000000
  H   0.12032903000000     -0.40337106000000     -2.16071551000000
  H   -0.70564919000000     -1.50203303000000     -0.99133196000000
