14
Coordinates from ORCA-job 6_1_orca
  O   -2.19409809000000     -0.87468351000000      1.09800306000000
  O   -0.82175245000000      0.06849440000000      1.04145536000000
  C   -0.65480792000000      0.52343278000000     -0.30697299000000
  C   0.47256222000000      1.34883557000000      0.19127655000000
  C   1.58750696000000      0.49622848000000      0.22476499000000
  C   1.30304837000000     -0.72834274000000     -0.38922965000000
  C   -0.06202026000000     -0.61062012000000     -1.09882229000000
  H   -2.23700524000000     -0.78950841000000      2.05630989000000
  H   -1.58201502000000      1.01574093000000     -0.67030031000000
  H   0.36120790000000      2.33887185000000      0.64506616000000
  H   2.53701311000000      0.70155532000000      0.73082831000000
  H   1.87366126000000     -1.57901166000000     -0.36475397000000
  H   0.12051176000000     -0.40683236000000     -2.16377681000000
  H   -0.70370635000000     -1.50388566000000     -0.99455190000000
