14
Coordinates from ORCA-job 6_2_orca
  O   -2.18493721000000     -0.86797676000000      1.09768265000000
  O   -0.83489733000000      0.06048530000000      1.03853331000000
  C   -0.65940888000000      0.52324083000000     -0.30020498000000
  C   0.47786097000000      1.34996276000000      0.18933124000000
  C   1.58855225000000      0.49378690000000      0.22424998000000
  C   1.28824565000000     -0.70913133000000     -0.39240179000000
  C   -0.05551414000000     -0.61553093000000     -1.09504386000000
  H   -2.23900075000000     -0.78544410000000      2.05850752000000
  H   -1.57994860000000      1.01391023000000     -0.67031773000000
  H   0.36047287000000      2.33650188000000      0.64580607000000
  H   2.53600794000000      0.70213292000000      0.73096420000000
  H   1.88516670000000     -1.59238962000000     -0.36642999000000
  H   0.11941628000000     -0.40546128000000     -2.16530365000000
  H   -0.70187590000000     -1.50379994000000     -0.99605470000000
