14
Coordinates from ORCA-job 11_0_orca
  O   -2.23081000000000     -0.41282000000000      1.73449000000000
  O   -0.53916000000000     -0.28058000000000      0.87357000000000
  C   -0.73643000000000      0.24150000000000     -0.40559000000000
  C   0.17844000000000      0.91333000000000      0.54720000000000
  C   1.53655000000000      0.41035000000000      0.28250000000000
  C   1.35836000000000     -0.62174000000000     -0.54486000000000
  C   0.07074000000000     -0.63709000000000     -1.30496000000000
  H   -2.23102000000000      0.52064000000000      2.00119000000000
  H   -1.74834000000000      0.59400000000000     -0.62573000000000
  H   -0.08238000000000      1.81450000000000      1.10894000000000
  H   2.43695000000000      0.66389000000000      0.84044000000000
  H   2.16011000000000     -1.32176000000000     -0.80091000000000
  H   0.21410000000000     -0.24801000000000     -2.32732000000000
  H   -0.38711000000000     -1.63612000000000     -1.37897000000000
