14
Coordinates from ORCA-job 11_1_orca
  O   -2.33825337000000     -0.42657023000000      1.77710415000000
  O   -0.54654223000000     -0.24692465000000      0.90614012000000
  C   -0.73637686000000      0.24085912000000     -0.40588576000000
  C   0.18147527000000      0.91822906000000      0.54407499000000
  C   1.53744732000000      0.41142164000000      0.28152275000000
  C   1.46869884000000     -0.64230333000000     -0.62672132000000
  C   0.07007568000000     -0.63705473000000     -1.30312677000000
  H   -2.23112232000000      0.50938047000000      2.00815321000000
  H   -1.74651745000000      0.59826396000000     -0.62638920000000
  H   -0.07830445000000      1.82027717000000      1.10491688000000
  H   2.43801999000000      0.66419940000000      0.83961268000000
  H   2.15793785000000     -1.32473724000000     -0.79735617000000
  H   0.21334503000000     -0.24956049000000     -2.32624833000000
  H   -0.38983815000000     -1.63528590000000     -1.37558419000000
