14
Coordinates from ORCA-job 15_0_orca
  O   -2.42528390000000     -0.07258783000000      1.55314575000000
  O   -0.54974407000000     -0.29661647000000      0.84220104000000
  C   -0.73399678000000      0.21093803000000     -0.44708512000000
  C   0.14836870000000      0.90314227000000      0.52579001000000
  C   1.52045212000000      0.43540096000000      0.27340250000000
  C   1.37063038000000     -0.61940425000000     -0.52959952000000
  C   0.10381931000000     -0.65955663000000     -1.32218749000000
  H   -2.08611042000000      0.26482477000000      2.39733574000000
  H   -1.73373715000000      0.57895059000000     -0.69318464000000
  H   -0.15133938000000      1.79389111000000      1.08254940000000
  H   2.41407186000000      0.71797439000000      0.82810415000000
  H   2.18835300000000     -1.30850152000000     -0.76597689000000
  H   0.27083515000000     -0.28189955000000     -2.34530605000000
  H   -0.33631883000000     -1.66645963000000     -1.39919263000000
