14
Coordinates from ORCA-job 15_2_orca
  O   -2.48974166000000     -0.06949062000000      1.57901344000000
  O   -0.60144371000000     -0.28400218000000      0.89455256000000
  C   -0.73340276000000      0.21567667000000     -0.44030539000000
  C   0.14369100000000      0.90134138000000      0.52078717000000
  C   1.52572384000000      0.41703943000000      0.26941235000000
  C   1.45513853000000     -0.60036402000000     -0.60430530000000
  C   0.11247697000000     -0.66431856000000     -1.31798963000000
  H   -2.08452325000000      0.26993555000000      2.39115406000000
  H   -1.73673696000000      0.57529006000000     -0.68827374000000
  H   -0.14944758000000      1.79739401000000      1.07966944000000
  H   2.41464351000000      0.71825383000000      0.83165064000000
  H   2.21399446000000     -1.32987266000000     -0.77219528000000
  H   0.26710097000000     -0.28007440000000     -2.34350210000000
  H   -0.33748538000000     -1.66658233000000     -1.39887941000000
