14
Coordinates from ORCA-job 20_1_orca
  O   -2.38806146000000      0.59173170000000      1.77325835000000
  O   -0.61023873000000     -0.33272960000000      0.91805102000000
  C   -0.73215644000000      0.17167991000000     -0.45438720000000
  C   0.14671963000000      0.89030611000000      0.50425075000000
  C   1.53122980000000      0.45495131000000      0.24324034000000
  C   1.51671340000000     -0.63466957000000     -0.63722370000000
  C   0.12075089000000     -0.67429087000000     -1.34088616000000
  H   -2.25317008000000     -0.19463260000000      2.34274132000000
  H   -1.75796293000000      0.47954362000000     -0.66606064000000
  H   -0.18346343000000      1.75621358000000      1.07717044000000
  H   2.41887945000000      0.75530347000000      0.79864282000000
  H   2.20665087000000     -1.29704877000000     -0.76813325000000
  H   0.28457945000000     -0.27782460000000     -2.35748976000000
  H   -0.30015083000000     -1.68836491000000     -1.43302410000000
