14
Coordinates from ORCA-job 20_2_orca
  O   -2.38978063000000      0.59071304000000      1.77592639000000
  O   -0.60588167000000     -0.32517084000000      0.90843369000000
  C   -0.73033498000000      0.16914854000000     -0.44393102000000
  C   0.14199375000000      0.88234438000000      0.50510908000000
  C   1.53429025000000      0.43870656000000      0.23324065000000
  C   1.47655138000000     -0.59111047000000     -0.62294991000000
  C   0.12982265000000     -0.67781981000000     -1.33908498000000
  H   -2.25406409000000     -0.19181162000000      2.34110878000000
  H   -1.75741763000000      0.48027361000000     -0.66745517000000
  H   -0.18264250000000      1.75714426000000      1.07652462000000
  H   2.41856882000000      0.75611548000000      0.79966599000000
  H   2.23643545000000     -1.32259816000000     -0.77529141000000
  H   0.28244324000000     -0.27728938000000     -2.35779714000000
  H   -0.29963336000000     -1.68849897000000     -1.43337899000000
