16
Generated by autodE on: 2025-05-23. charge = 0 mult = 2 
O      2.30879   -1.28310    0.93433
O      1.48302    0.03604    0.53296
C      0.68575   -0.23809   -0.56207
C     -0.45868   -1.18061   -0.17339
C     -1.33716   -0.27434    0.58938
C     -1.12647    1.14718    0.23227
C     -0.01713    1.10561   -0.82523
H      2.84733   -0.90157    1.63410
H      1.28689   -0.58537   -1.41208
H     -0.09398   -2.02608    0.41256
H     -0.93835   -1.58111   -1.07781
H     -2.04335   -0.59822    1.32823
H     -0.81293    1.73092    1.10638
H     -2.03693    1.62484   -0.14938
H      0.68347    1.93345   -0.73729
H     -0.43000    1.09063   -1.83299
