16
Generated by autodE on: 2025-05-23. charge = 0 mult = 2 
O      2.62773   -0.21266    0.88116
O      0.92310   -0.54116    0.78443
C      0.58204   -0.46004   -0.57761
C     -0.73832   -1.22149   -0.41635
C     -1.09897   -0.31373    0.71760
C     -0.97412    1.09720    0.25595
C      0.11001    0.97720   -0.83812
H      2.73994   -0.45141    1.80226
H      1.36749   -0.84156   -1.22869
H     -0.59414   -2.25656   -0.12019
H     -1.40941   -1.15762   -1.27761
H     -1.57036   -0.61473    1.63457
H     -0.67367    1.75962    1.06731
H     -1.92294    1.46926   -0.14463
H      0.92327    1.68409   -0.69542
H     -0.29136    1.08377   -1.84469
