16
Generated by autodE on: 2025-05-23. charge = 0 mult = 2 
O      2.22091   -1.18224    1.00930
O      1.52744   -0.00207    0.64524
C      0.68726   -0.24343   -0.46436
C     -0.47007   -1.18262   -0.09764
C     -1.49196   -0.27015    0.45709
C     -1.16318    1.15226    0.21546
C      0.01688    1.10056   -0.76072
H      3.14347   -0.89461    1.05121
H      1.28930   -0.61988   -1.30308
H     -0.13995   -1.94244    0.61691
H     -0.82297   -1.71365   -0.99274
H     -2.30933   -0.59430    1.07038
H     -0.86086    1.64802    1.14843
H     -2.00895    1.72260   -0.18261
H      0.71729    1.92143   -0.62117
H     -0.33500    1.10071   -1.79171
