14
Coordinates from ORCA-job 24_0_orca
  O   -2.72621000000000      0.57077000000000      2.11445000000000
  O   -0.39250000000000     -0.42119000000000      0.80655000000000
  C   -0.73106000000000      0.14265000000000     -0.42993000000000
  C   0.15555000000000      0.86607000000000      0.51805000000000
  C   1.54411000000000      0.47705000000000      0.22503000000000
  C   1.35141000000000     -0.62852000000000     -0.49965000000000
  C   0.11539000000000     -0.67213000000000     -1.34392000000000
  H   -1.95373000000000      0.01247000000000      1.85443000000000
  H   -1.77593000000000      0.42303000000000     -0.59938000000000
  H   -0.19543000000000      1.70622000000000      1.12242000000000
  H   2.43912000000000      0.78454000000000      0.76219000000000
  H   2.17043000000000     -1.32345000000000     -0.72160000000000
  H   0.30518000000000     -0.25476000000000     -2.34665000000000
  H   -0.30633000000000     -1.68267000000000     -1.46199000000000
