14
Coordinates from ORCA-job 17_0_orca
  O   -2.46675001000000      0.21590101000000      1.56753317000000
  O   -0.53465265000000     -0.30103350000000      0.83417286000000
  C   -0.72553062000000      0.21751927000000     -0.45005077000000
  C   0.15743870000000      0.90462133000000      0.52363362000000
  C   1.52836896000000      0.43016498000000      0.27103109000000
  C   1.36995676000000     -0.62127739000000     -0.53485650000000
  C   0.10343742000000     -0.66073263000000     -1.32701708000000
  H   -2.08676860000000      0.00086681000000      2.43346581000000
  H   -1.72179612000000      0.58301583000000     -0.71089135000000
  H   -0.15242102000000      1.78426688000000      1.09143534000000
  H   2.42222326000000      0.70378742000000      0.82996330000000
  H   2.18362041000000     -1.31392015000000     -0.77539368000000
  H   0.26594217000000     -0.27820825000000     -2.34917391000000
  H   -0.34306865000000     -1.66487696000000     -1.40385726000000
