14
Coordinates from ORCA-job 17_2_orca
  O   -2.49704973000000      0.22330296000000      1.58150071000000
  O   -0.62249346000000     -0.28537332000000      0.89773741000000
  C   -0.72699373000000      0.21729813000000     -0.44679680000000
  C   0.14931956000000      0.89720786000000      0.52141851000000
  C   1.53217991000000      0.41283957000000      0.26420953000000
  C   1.45801707000000     -0.60332207000000     -0.61045698000000
  C   0.11418977000000     -0.66079935000000     -1.32335880000000
  H   -2.08839728000000      0.00505091000000      2.43431209000000
  H   -1.72525424000000      0.58089738000000     -0.70511009000000
  H   -0.15092613000000      1.78721948000000      1.08753836000000
  H   2.42215531000000      0.70550788000000      0.83194650000000
  H   2.21246497000000     -1.33710184000000     -0.78042232000000
  H   0.26481789000000     -0.27827208000000     -2.34878845000000
  H   -0.34188281000000     -1.66410285000000     -1.40356361000000
