14
Coordinates from ORCA-job 12_1_orca
  O   -2.38302525000000     -0.37450706000000      1.72367665000000
  O   -0.56085874000000     -0.25904619000000      0.90893769000000
  C   -0.73930698000000      0.23153709000000     -0.41730171000000
  C   0.16859341000000      0.91321938000000      0.53788098000000
  C   1.53281145000000      0.41871928000000      0.28055949000000
  C   1.47523779000000     -0.63909863000000     -0.62620550000000
  C   0.07987151000000     -0.64598027000000     -1.30692136000000
  H   -2.18090289000000      0.49613110000000      2.11321815000000
  H   -1.74823979000000      0.58186302000000     -0.63884111000000
  H   -0.10012014000000      1.81370859000000      1.09605736000000
  H   2.43013179000000      0.68294872000000      0.83554079000000
  H   2.16921155000000     -1.31703910000000     -0.79008226000000
  H   0.22790690000000     -0.25646615000000     -2.33146625000000
  H   -0.37114472000000     -1.64578938000000     -1.38484352000000
