16
Generated by autodE on: 2025-05-23. charge = 0 mult = 1 
C      0.21691    1.60461   -0.32497
C     -1.04732    1.27369   -0.09474
C     -1.62832   -0.03815    0.20797
C     -0.13152   -1.43970    0.70397
C      0.91791   -1.28631   -0.29598
C      1.41786    0.76284   -0.32489
H      0.43088    2.65044   -0.53531
H     -1.78927    2.06821   -0.13872
H     -2.23949   -0.06286    1.09977
H     -2.09578   -0.53005   -0.63514
H      0.13239   -1.17084    1.71569
H     -0.73674   -2.33441    0.63385
H      1.89424   -1.67356   -0.03410
H      0.63259   -1.48268   -1.31866
H      2.01962    0.84035    0.57163
H      2.00617    0.81872   -1.23040
