16
Generated by autodE on: 2025-05-23. charge = 0 mult = 1 
C      0.23638    1.53128   -0.31572
C     -1.02510    1.20106   -0.08626
C     -1.54622   -0.15105    0.22531
C     -0.20006   -1.25123    0.68388
C      0.87647   -1.09161   -0.33743
C      1.40905    0.62502   -0.29676
H      0.47613    2.56689   -0.53151
H     -1.78596    1.97259   -0.13481
H     -2.23044   -0.14248    1.06858
H     -2.02207   -0.61243   -0.63675
H      0.11140   -0.94406    1.67590
H     -0.63078   -2.24814    0.70229
H      1.76454   -1.67839   -0.12136
H      0.52816   -1.27182   -1.34824
H      1.99010    0.73082    0.61632
H      2.04850    0.76382   -1.16347
