16
Generated by autodE on: 2025-05-23. charge = 0 mult = 1 
C      0.23222    1.54713   -0.31743
C     -1.03001    1.21654   -0.08917
C     -1.56935   -0.12476    0.21929
C     -0.18047   -1.29423    0.69195
C      0.88295   -1.13887   -0.33247
C      1.41450    0.65998   -0.29952
H      0.46469    2.58524   -0.53360
H     -1.78600    1.99401   -0.13860
H     -2.23899   -0.12294    1.07246
H     -2.03937   -0.59505   -0.63930
H      0.12219   -0.98664    1.68506
H     -0.64772   -2.27369    0.69987
H      1.79211   -1.68951   -0.11347
H      0.54202   -1.31463   -1.34501
H      1.99564    0.75487    0.61289
H      2.04570    0.78282   -1.17297
