16
Generated by autodE on: 2025-05-23. charge = 0 mult = 1 
C      0.22288    1.58271   -0.32135
C     -1.04100    1.25134   -0.09507
C     -1.60984   -0.07052    0.20840
C     -0.14233   -1.38391    0.70642
C      0.89878   -1.23556   -0.31888
C      1.41948    0.72776   -0.30769
H      0.44241    2.62555   -0.53677
H     -1.78808    2.03963   -0.14547
H     -2.24925   -0.08452    1.08155
H     -2.06958   -0.55808   -0.64310
H      0.14490   -1.08407    1.70415
H     -0.69157   -2.31789    0.68592
H      1.85151   -1.69877   -0.09065
H      0.57536   -1.41150   -1.33486
H      2.00313    0.80238    0.60221
H      2.03334    0.81574   -1.19484
