16
Generated by autodE on: 2025-05-23. charge = 0 mult = 1 
C      0.21889    1.59527   -0.32569
C     -1.04439    1.26500   -0.09250
C     -1.61987   -0.05104    0.21250
C     -0.14157   -1.41628    0.69942
C      0.91486   -1.26098   -0.30045
C      1.41750    0.74719   -0.32218
H      0.43633    2.63912   -0.54052
H     -1.78913    2.05644   -0.13690
H     -2.23735   -0.07026    1.10058
H     -2.09158   -0.53774   -0.63175
H      0.12499   -1.14765    1.71079
H     -0.72312   -2.32761    0.63483
H      1.87967   -1.67672   -0.03815
H      0.62643   -1.45675   -1.32262
H      2.01660    0.82881    0.57621
H      2.01186    0.81350   -1.22360
