14
Coordinates from ORCA-job 18_1_orca
  O   -2.44003108000000      0.39653041000000      1.63994503000000
  O   -0.62864976000000     -0.29530169000000      0.91024118000000
  C   -0.73263770000000      0.20743542000000     -0.46080588000000
  C   0.14970041000000      0.90516625000000      0.51235913000000
  C   1.52751304000000      0.43589079000000      0.26725753000000
  C   1.49939191000000     -0.64455687000000     -0.62646991000000
  C   0.10883876000000     -0.66430821000000     -1.32500387000000
  H   -2.13380428000000     -0.12611151000000      2.41049755000000
  H   -1.73527936000000      0.54899555000000     -0.70389361000000
  H   -0.16014054000000      1.78631932000000      1.07654424000000
  H   2.41784832000000      0.71914996000000      0.82378263000000
  H   2.18998998000000     -1.31054160000000     -0.76760036000000
  H   0.26990267000000     -0.28404923000000     -2.35014489000000
  H   -0.33246601000000     -1.67456771000000     -1.40650260000000
