14
Coordinates from ORCA-job 18_2_orca
  O   -2.44271465000000      0.39698459000000      1.64442415000000
  O   -0.62378672000000     -0.28882441000000      0.90064105000000
  C   -0.72938960000000      0.20504895000000     -0.44989684000000
  C   0.14566929000000      0.89788020000000      0.51273627000000
  C   1.53016943000000      0.41986019000000      0.25622969000000
  C   1.46167201000000     -0.60185195000000     -0.61116878000000
  C   0.11739036000000     -0.66858594000000     -1.32517540000000
  H   -2.13553032000000     -0.12443550000000      2.40807332000000
  H   -1.73589113000000      0.54974366000000     -0.70502511000000
  H   -0.15945306000000      1.78704257000000      1.07569816000000
  H   2.41778981000000      0.72005446000000      0.82509553000000
  H   2.21809129000000     -1.33502534000000     -0.77463015000000
  H   0.26799799000000     -0.28378204000000     -2.35019866000000
  H   -0.33180609000000     -1.67408022000000     -1.40661082000000
