14
Coordinates from ORCA-job 4_2_orca
  O   -2.15463653000000     -0.82304690000000      0.97285583000000
  O   -0.99917391000000      0.07637810000000      1.07642396000000
  C   -0.65809122000000      0.57291991000000     -0.24132731000000
  C   0.53734469000000      1.40237276000000      0.13469040000000
  C   1.60966192000000      0.51504740000000      0.21497552000000
  C   1.26000025000000     -0.71978296000000     -0.32499108000000
  C   -0.08787176000000     -0.61954824000000     -0.99670325000000
  H   -2.19815039000000     -1.11815454000000      1.89905657000000
  H   -1.53172827000000      1.09144180000000     -0.66912751000000
  H   0.48117804000000      2.42619708000000      0.51019339000000
  H   2.58330401000000      0.73336377000000      0.65989487000000
  H   1.85616821000000     -1.61018232000000     -0.29520128000000
  H   0.05363667000000     -0.44108879000000     -2.07998286000000
  H   -0.75138487000000     -1.48591934000000     -0.86085607000000
