14
Coordinates from ORCA-job 2_2_orca
  O   -2.42460253000000     -0.62635481000000      0.80644143000000
  O   -1.27408733000000      0.08286101000000      1.13241564000000
  C   -0.62865321000000      0.48611907000000     -0.08213458000000
  C   0.56701883000000      1.31533961000000      0.30463224000000
  C   1.72753746000000      0.57183805000000      0.11181702000000
  C   1.44032586000000     -0.64378756000000     -0.49598999000000
  C   -0.02178006000000     -0.72619678000000     -0.81082838000000
  H   -2.69298806000000     -0.96918835000000      1.67628543000000
  H   -1.37845292000000      1.03362068000000     -0.68174298000000
  H   0.49096147000000      2.30171877000000      0.76399708000000
  H   2.73017254000000      0.90279026000000      0.39147377000000
  H   2.16872004000000     -1.41032013000000     -0.75332013000000
  H   -0.18899813000000     -0.67205809000000     -1.90194458000000
  H   -0.51508664000000     -1.64652186000000     -0.46106007000000
