16

C     -0.50593   -0.03076    1.04231
C     -1.45559    0.52182   -0.00949
C     -1.54034   -0.04432   -1.41869
C      0.69527    0.36471   -1.76333
C      1.69675   -0.04603   -0.69468
C      0.44098   -1.20464    0.84503
H     -0.48167    0.50611    1.98909
H     -2.09299    1.36450    0.25286
H     -1.69891   -1.12122   -1.39684
H     -1.85359    0.68560   -2.16328
H      0.53178    1.44104   -1.75246
H      0.62610   -0.36676   -2.56675
H      1.92331    0.74314    0.02032
H      2.29439   -0.91057   -0.97883
H      1.18080   -1.27959    1.64026
H      0.06214   -1.96612    0.16536
