16

C     -0.49604    1.48141   -0.32982
C     -1.75753    0.73659    0.07922
C     -1.92647   -0.65671   -0.50705
C     -0.53287   -1.58503    1.06779
C      0.84648   -1.21113    0.54693
C      0.88912    1.04979    0.12689
H     -0.62099    2.37369   -0.94091
H     -2.52203    1.24173    0.66707
H     -2.80676   -1.17080   -0.12480
H     -1.38534   -0.75582   -1.44656
H     -0.84971   -0.95625    1.89820
H     -0.80131   -2.60703    0.80548
H      1.57065   -1.12022    1.35479
H      0.97633   -1.50209   -0.49414
H      1.54602    0.91007   -0.73001
H      1.06164    1.38936    1.14682
