16

C      0.63775    1.21378   -0.14952
C     -0.30748    0.69470    0.92311
C     -1.57336   -0.05355    0.53428
C     -0.25245   -1.86742    0.03518
C      1.06426   -1.60283   -0.67894
C      0.84935    0.53676   -1.49504
H      1.21495    2.10289    0.09855
H     -0.08496    0.89042    1.97067
H     -2.06124   -0.56339    1.36335
H     -2.00466    0.36098   -0.37538
H     -1.04751   -2.15661   -0.65008
H     -0.07964   -2.11884    1.08029
H      1.11640   -2.08542   -1.65348
H      1.86722   -1.28946   -0.01381
H      1.87645    0.63695   -1.84196
H     -0.08165    0.37810   -2.03669
