16

C      0.67101    1.20296   -0.58192
C     -0.12395    1.04717    0.70540
C     -1.18298   -0.03880    0.81798
C      0.34552   -1.51842    1.68888
C      1.41386   -1.48829    0.60654
C      1.36663   -0.01887   -1.16226
H      0.74445    2.18001   -1.05647
H      0.10704    1.74049    1.51235
H     -1.82399    0.11032    1.68528
H     -1.35037   -0.58629   -0.10805
H      0.55093   -0.87452    2.54243
H     -0.28744   -2.40363    1.65572
H      2.31812   -1.01643    0.98733
H      1.25553   -2.27569   -0.12849
H      2.44587    0.12279   -1.18459
H      0.68773   -0.53535   -1.83877
