16

C      0.36858    1.16902   -0.33016
C     -0.86035    1.46607    0.51537
C     -1.86740    0.33326    0.64239
C     -0.33241   -1.19747    1.40703
C      1.05698   -0.62708    1.64780
C      1.69173    1.21056    0.41889
H      0.28419    0.99535   -1.40157
H     -1.02797    2.45905    0.92899
H     -2.43280    0.39759    1.57056
H     -2.13066   -0.06384   -0.33656
H     -0.85101   -1.36656    2.34927
H     -0.40789   -1.71075    0.44986
H      1.09269    0.01660    2.52514
H      1.82012   -1.25882    1.19627
H      2.49767    0.73680   -0.13907
H      1.71356    2.02119    1.14535
