16

C      1.14320    1.26316   -0.76282
C     -0.16250    1.35821    0.01147
C     -0.27042    0.86641    1.44676
C     -0.36284   -1.28715    0.64823
C      1.09528   -1.61893    0.36984
C      2.20106    0.20425   -0.49230
H      1.32347    2.00357   -1.54032
H     -1.03612    1.74198   -0.51267
H     -1.28538    0.92837    1.83580
H      0.68480    0.87283    1.96909
H     -0.69812   -1.66890    1.61114
H     -0.92155   -1.07837   -0.26259
H      1.71088   -1.58005    1.26697
H      1.18651   -2.24336   -0.51735
H      2.79837    0.49886    0.36896
H      2.45353   -0.32867   -1.40750
