16

C      0.91550    0.33508    1.52909
C     -0.31410    1.21665    1.37295
C     -1.23562    1.33306    0.16846
C     -0.82924   -0.38241   -1.30669
C      0.68237   -0.53350   -1.23008
C      1.06956   -1.07195    0.97223
H      1.72108    0.71941    2.15242
H     -0.51635    1.90827    2.18903
H     -2.23173    0.97260    0.41976
H     -0.87350    2.10468   -0.50889
H     -1.36043   -1.11664   -0.70331
H     -1.13066    0.14372   -2.21094
H      0.99516   -1.49939   -1.62320
H      1.20009    0.42195   -1.16370
H      2.10548   -1.32063    0.74784
H      0.22280   -1.69305    1.25957
