16

C      0.60290    1.15857   -0.36137
C     -0.36601    1.02499    0.80345
C     -1.54873    0.09499    0.58024
C     -0.28911   -1.81110    0.32686
C      1.11663   -1.55035    0.84611
C      1.80117    0.22549   -0.44534
H      0.44890    1.96190   -1.07981
H     -0.23071    1.63653    1.69391
H     -1.97654    0.24130   -0.41016
H     -1.99728   -0.23125    1.51709
H     -0.35995   -1.71271   -0.75509
H     -0.84555   -2.42378    1.03421
H      1.12756   -1.00478    1.78821
H      1.83850   -2.24948    0.42723
H      1.81281   -0.30522   -1.39588
H      2.59114    0.54333    0.23308
