16

C     -0.24955    2.03415   -0.78133
C     -1.29103    1.43260    0.14973
C     -2.21018    0.38196   -0.45430
C     -0.87893   -1.32047    0.32895
C      0.49607   -0.87475   -0.14479
C      1.03094    1.22458   -0.91729
H     -0.39086    3.02447   -1.21085
H     -1.31827    1.78806    1.17837
H     -3.09931    0.23116    0.15564
H     -2.00865    0.19060   -1.50696
H     -1.09336   -1.07248    1.36715
H     -1.32164   -2.10790   -0.27877
H      1.15352   -0.72702    0.71036
H      0.68643   -1.23477   -1.15448
H      1.71711    1.49223   -0.11550
H      1.19103    0.97451   -1.96474
