16

C      0.97187    0.98390    0.00207
C     -0.50067    1.29080    0.22763
C     -1.58610    0.59834   -0.58221
C     -1.53171   -1.12541    0.93757
C     -0.13892   -1.70490    0.74254
C      1.46860   -0.42388   -0.28940
H      1.67971    1.80937    0.05474
H     -0.74570    2.01367    1.00392
H     -2.57985    0.98431   -0.36122
H     -1.20737    0.08387   -1.46380
H     -2.30660   -1.66353    0.39414
H     -1.62021   -0.51289    1.83330
H      0.42412   -1.68811    1.67422
H     -0.09980   -2.38939   -0.10320
H      2.27468   -0.70357    0.38687
H      1.28632   -0.67685   -1.33253
