16

C      0.07400    0.81487    0.00023
C     -0.79012   -0.18659    0.75110
C     -1.32217   -1.37284   -0.03839
C      0.39168   -2.75869   -0.69121
C      1.65561   -2.08798   -0.17511
C      1.32947    0.15737   -0.55208
H     -0.13214    1.88321   -0.03657
H     -1.00664    0.02240    1.79735
H     -1.75975   -2.10123    0.64227
H     -1.56616   -1.07616   -1.05710
H      0.09006   -3.58675   -0.05193
H      0.25694   -2.61954   -1.76258
H      2.48018   -2.16034   -0.88235
H      1.66153   -2.01083    0.91086
H      2.15891    0.36833    0.12084
H      1.20834    0.01589   -1.62476
