16

C      0.65165    1.84259    0.74403
C     -0.78432    1.50361    1.11354
C     -1.67966    0.68729    0.19402
C     -0.29248   -1.11604    0.52228
C      1.20812   -0.91280    0.37877
C      1.41401    1.23323   -0.42261
H      1.17175    2.54001    1.39848
H     -1.18541    1.87033    2.05686
H     -2.49500    0.18020    0.70727
H     -1.62286    1.07210   -0.82284
H     -0.57326   -1.21046    1.56994
H     -0.73855   -1.53366   -0.37879
H      1.61752   -1.35812   -0.52644
H      1.70806   -0.66675    1.31411
H      2.49368    1.30968   -0.30517
H      0.81446    1.12900   -1.32538
