16

C      0.12768    1.46306   -0.23499
C     -0.93461    0.82886    0.64975
C     -1.93919   -0.05883   -0.06883
C     -0.59005   -1.86503    0.38001
C      0.75153   -1.48047   -0.22498
C      1.19033    0.65351   -0.96228
H      0.06101    2.53891   -0.38762
H     -0.98799    1.10087    1.70254
H     -2.78145   -0.33199    0.56465
H     -1.83587   -0.01790   -1.15186
H     -0.62518   -1.75892    1.46299
H     -1.19038   -2.50195   -0.26751
H      1.51614   -1.41919    0.54765
H      0.81374   -1.76256   -1.27469
H      0.93975    0.60298   -2.02057
H      2.14959    0.70915   -0.45035
