16

C      0.69234    2.29308   -0.03880
C     -0.47228    1.83768    0.82706
C     -1.45624    0.77353    0.36560
C     -0.19283   -1.08619    0.84442
C      1.11153   -0.60944    0.22386
C      1.41411    1.33227   -0.97123
H      1.01209    3.33262    0.00939
H     -0.61079    2.34633    1.77959
H     -2.19363    0.53061    1.12887
H     -1.49025    0.69191   -0.71952
H     -0.18533   -1.05434    1.93266
H     -0.80816   -1.69855    0.18736
H      1.76217   -0.17648    0.98184
H      1.31585   -1.13480   -0.70758
H      0.81916    1.16083   -1.86676
H      2.49200    1.35429   -0.81954
