16

C      0.47958    1.16335   -0.65836
C     -0.96029    0.70399   -0.82918
C     -1.54346   -0.06829    0.34429
C      0.28969   -1.24146    1.08405
C      1.15764   -1.47956   -0.14219
C      1.51223    0.37758   -1.45190
H      0.70084    2.01717   -0.02021
H     -1.53286    0.98883   -1.71021
H     -1.66779    0.58264    1.20809
H     -2.08510   -0.94790    0.00045
H     -0.27026   -2.13214    1.36421
H      0.64600   -0.41404    1.69540
H      0.59629   -1.96965   -0.93593
H      2.21058   -1.51657    0.13217
H      2.52479    0.64868   -1.15771
H      1.11114    0.00007   -2.39102
