16

C      0.20317    1.81254   -0.12005
C     -1.27199    1.69092    0.22995
C     -1.80259    0.30880    0.57886
C     -0.00149   -1.09411    0.84704
C      1.32346   -0.68651    0.22088
C      0.73770    0.96744   -1.26618
H      0.80569    2.50643    0.46365
H     -1.89849    2.58125    0.23527
H     -2.08510    0.27263    1.62968
H     -2.23327   -0.14201   -0.31368
H      0.01805   -0.94754    1.92568
H     -0.52593   -1.83859    0.25033
H      1.66393   -1.38179   -0.54463
H      1.90165   -0.00334    0.84082
H     -0.01195    0.34859   -1.75644
H      1.68777    1.35512   -1.63005
