16

C      0.67155    0.98733    0.68348
C     -0.78605    0.59313    0.86646
C     -1.50783   -0.41844   -0.01066
C     -0.03485   -2.14341    0.36196
C      1.36904   -1.70963    0.75518
C      1.61480    0.31722   -0.30383
H      1.06901    1.74579    1.35577
H     -1.35290    1.09719    1.64737
H     -2.31761   -0.92567    0.51116
H     -1.40228   -0.15428   -1.06157
H     -0.56941   -2.53748    1.22469
H     -0.11644   -2.37791   -0.69808
H      1.41689   -1.28430    1.75625
H      2.13598   -2.20033    0.15823
H      2.66374    0.44136   -0.03996
H      1.14556    0.12927   -1.26810
