16

C      0.33861    1.39800    0.47388
C     -1.01563    0.90041   -0.00764
C     -1.45410   -0.44806    0.54274
C      0.26882   -1.65837   -0.37961
C      1.60656   -1.03317   -0.01454
C      1.48280    1.20935   -0.51037
H      0.43127    1.83652    1.46601
H     -1.60103    1.52539   -0.67987
H     -1.17807   -0.56654    1.58921
H     -2.25534   -0.88314   -0.05226
H     -0.05593   -1.39318   -1.38437
H      0.06170   -2.53455    0.23256
H      2.35752   -1.22153   -0.77999
H      1.69837   -0.84068    1.05309
H      1.14751    1.08311   -1.53846
H      2.42521    1.57762   -0.10840
