16

C     -0.02957    1.08628   -0.09625
C     -1.24486    0.68718    0.72669
C     -1.83415   -0.68519    0.43878
C     -0.02193   -2.09910    0.41213
C      0.90556   -1.39902    1.39363
C      1.34403    0.59471    0.33400
H     -0.16583    1.77879   -0.92514
H     -1.69036    1.40858    1.40956
H     -2.28069   -1.10834    1.33704
H     -2.05189   -0.79799   -0.62196
H      0.26486   -1.94524   -0.62682
H     -0.55222   -2.92993    0.87458
H      1.91225   -1.81096    1.34667
H      0.37115   -0.91393    2.20876
H      1.87113    0.13577   -0.50078
H      1.68438    1.12963    1.21907
