16

C      0.97458    1.61433   -0.43657
C     -0.12948    1.25749    0.54688
C     -1.12028    0.12092    0.34665
C      0.32911   -1.55624   -0.26200
C      1.62491   -1.05806   -0.88362
C      1.09201    0.97731   -1.81278
H      1.72319    2.33899   -0.12088
H     -0.24105    1.88906    1.42658
H     -1.37990   -0.36485    1.28577
H     -1.70202    0.27979   -0.55980
H      0.49878   -1.89868    0.75745
H     -0.39562   -1.86893   -1.01189
H      1.83164   -1.53178   -1.84184
H      2.30754   -0.62322   -0.15542
H      0.11933    0.87059   -2.29010
H      2.08441    1.07082   -2.25065
