16

C      0.90109    1.18383    0.21731
C     -0.12504    0.86142    1.29274
C     -1.44774    0.19797    0.94083
C     -0.92604   -1.82104   -0.02638
C      0.59502   -1.81463   -0.02176
C      1.17569    0.21891   -0.92596
H      1.45567    2.11883    0.27590
H      0.08827    1.18753    2.30928
H     -1.88198   -0.29760    1.80753
H     -1.89438    0.68970    0.07826
H     -1.31096   -2.48336    0.74726
H     -1.34939   -1.54315   -0.99016
H      1.01203   -1.57278    0.95442
H      0.99644   -2.40507   -0.84371
H      2.22628   -0.06435   -0.96264
H      0.41004    0.31997   -1.69335
