16

C      0.30866    1.22642   -0.86164
C     -0.90983    1.08460    0.03758
C     -1.67780   -0.22726   -0.01525
C     -0.19951   -1.44943    1.25163
C      0.98028   -1.82900    0.36974
C      1.34287    0.11231   -0.80921
H      0.46065    2.13283   -1.44519
H     -1.18132    1.92154    0.67870
H     -2.48394   -0.25134    0.71610
H     -1.54576   -0.74162   -0.96568
H     -0.89173   -2.28055    1.37569
H      0.02074   -0.59936    1.89522
H      0.67847   -2.42269   -0.49152
H      1.91017   -1.84557    0.93577
H      1.32308   -0.42324   -1.75690
H      2.11966    0.39920   -0.10237
