16

C      0.03745    1.58144   -0.00065
C     -1.34640    1.27520    0.55124
C     -1.47275   -0.01217    1.35140
C      0.16500   -1.61130    1.14028
C      0.58269   -1.52916   -0.32002
C      0.58302    0.64567   -1.06846
H      0.51894    2.51449    0.28707
H     -2.16146    1.99047    0.45497
H     -2.19291   -0.66119    0.85595
H     -1.18794    0.18501    2.38354
H      0.86263   -1.09526    1.79781
H     -0.47917   -2.46789    1.33170
H      1.65600   -1.68257   -0.41904
H     -0.23610   -1.78007   -0.99230
H      1.67107    0.68381   -1.07134
H     -0.15845    0.51870   -1.85549
