16

C      1.12535    1.08827   -0.04361
C     -0.33435    1.22976   -0.44697
C     -1.30129    0.18603    0.09080
C     -0.00969   -1.35316    1.20735
C      1.47918   -1.55234    0.96792
C      1.90332   -0.03659   -0.70918
H      1.54353    1.81509    0.65069
H     -0.65533    2.06771   -1.06341
H     -1.82395    0.58212    0.95987
H     -1.61505   -0.46691   -0.72194
H     -0.17950   -0.78268    2.11896
H     -0.59008   -2.14403    0.73511
H      2.10577   -1.07276    1.71808
H      1.71723   -2.39581    0.32198
H      2.97348    0.04393   -0.52585
H      1.33546   -0.52197   -1.50118
