16

C      0.00399    1.31782    0.42854
C     -1.34039    0.72488    0.82161
C     -1.80365   -0.66349    0.40762
C      0.06540   -1.91023   -0.07852
C      1.33409   -1.07121   -0.09091
C      0.65240    0.96996   -0.90266
H      0.47853    2.00920    1.12280
H     -2.01576    1.34387    1.40977
H     -2.04749   -1.26245    1.28347
H     -2.23980   -0.62112   -0.58903
H     -0.31299   -2.09193   -1.08308
H      0.01508   -2.52123    0.82119
H      1.96838   -1.30240   -0.94506
H      1.59573   -0.68818    0.89406
H      1.67902    1.32385   -0.98112
H     -0.09572    0.75490   -1.66384
