16

C     -0.00896    1.74760   -0.04233
C     -1.36795    1.08039    0.10406
C     -1.82532   -0.14683   -0.66943
C     -0.11375   -1.43935    0.15758
C      1.17269   -0.78625   -0.32437
C      0.99681    1.36551   -1.11750
H      0.24513    2.55164    0.64627
H     -2.02504    1.48967    0.86953
H     -1.49802   -0.15456   -1.70776
H     -2.66785   -0.64441   -0.19206
H     -0.37358   -1.18003    1.18256
H     -0.38866   -2.31325   -0.43069
H      1.79625   -0.48472    0.51562
H      1.43493   -1.07811   -1.33994
H      2.02213    1.62271   -0.85697
H      0.51873    1.29790   -2.09330
