16

C      0.01992    1.57280    0.14353
C     -1.07093    0.82448    0.89421
C     -1.98854   -0.15608    0.18004
C     -0.54389   -1.94410    0.18274
C      0.72824   -1.48412   -0.51283
C      0.93237    0.79018   -0.78840
H      0.16733    2.63931    0.30483
H     -1.17220    1.05387    1.95361
H     -2.72569   -0.58448    0.85710
H     -1.99360   -0.01689   -0.89974
H     -1.15916   -2.58324   -0.44836
H     -0.48284   -1.88737    1.26828
H      1.58304   -1.58271    0.15421
H      0.66391   -1.57937   -1.59548
H      0.53294    0.85719   -1.79899
H      1.94262    0.77339   -0.38290
