16

C     -0.57678    2.26606   -0.46146
C     -1.72508    1.64572    0.31959
C     -2.20528    0.23608    0.00997
C     -0.19987   -0.77552    0.49890
C      1.15816   -0.38281   -0.06257
C      0.46003    1.46760   -1.23673
H     -0.54101    3.35267   -0.51807
H     -2.25000    2.25584    1.05268
H     -2.73198   -0.21876    0.84725
H     -2.32290    0.09667   -1.06337
H     -0.59713   -1.65277   -0.00898
H     -0.32296   -0.39806    1.51266
H      1.80688    0.07407    0.68293
H      1.43388   -0.90474   -0.97739
H      1.45402    1.89376   -1.11144
H     -0.01770    0.92583   -2.05134
