16

C     -0.23271    1.36461    0.23217
C     -1.68593    1.01392   -0.04816
C     -2.09885   -0.44966   -0.01642
C     -0.36254   -1.47583    1.08642
C      1.07048   -0.98055    0.96450
C      0.87110    0.70890   -0.58342
H     -0.04186    2.08887    1.02225
H     -2.40458    1.80842   -0.24184
H     -2.82639   -0.62890    0.77345
H     -1.97735   -0.88427   -1.00721
H     -0.78934   -1.18119    2.04369
H     -0.54222   -2.34277    0.45280
H      1.37195   -0.29889    1.75810
H      1.70006   -1.61101    0.33880
H      1.82802    1.20974   -0.44640
H      0.50197    0.08203   -1.39342
