16

C      0.24018    2.03850    0.35386
C     -1.17854    1.63530    0.72544
C     -1.56771    0.16962    0.84334
C     -0.73265   -1.64720   -0.29063
C      0.40691   -0.95215   -1.02004
C      1.23911    1.00095   -0.13522
H      0.56930    3.06061    0.53324
H     -1.87392    2.40928    1.04580
H     -2.49646    0.02492    0.29397
H     -1.13187   -0.21080    1.76564
H     -1.57088   -1.85730   -0.95288
H     -0.41056   -2.20388    0.58784
H      1.35462   -1.45969   -0.84804
H      0.03439   -0.38709   -1.87284
H      1.62924    1.30777   -1.10423
H      1.65771    0.49132    0.73102
