16

C      0.82520    1.83058    0.83947
C     -0.68471    1.65495    0.89216
C     -1.38067    0.36077    0.49936
C      0.02406   -1.43055    0.18008
C      1.25441   -0.89982    0.89999
C      1.57213    1.06942   -0.24509
H      1.33693    2.47841    1.54915
H     -1.28079    2.50129    1.22922
H     -1.82071   -0.09864    1.38289
H     -1.67667    0.40825   -0.54728
H      0.10674   -1.35093   -0.90258
H     -0.50916   -2.15879    0.78890
H      2.16273   -1.38340    0.54441
H      1.01889   -0.48372    1.87811
H      2.64679    1.01802   -0.07835
H      1.00274    1.08534   -1.17291
