16

C     -0.03475    1.64853    0.23996
C     -1.18174    0.73533    0.64481
C     -1.66840   -0.21135   -0.44169
C      0.03857   -1.67724    0.02888
C      1.43606   -1.18855    0.37802
C      1.32057    1.05539   -0.11335
H     -0.21590    2.71986    0.17180
H     -1.65721    0.85899    1.61632
H     -2.47554   -0.85990   -0.10518
H     -1.42818    0.16826   -1.43341
H     -0.48453   -2.01889    0.92050
H     -0.04113   -1.97999   -1.01387
H      1.57774   -1.01580    1.44359
H      2.17656   -1.43515   -0.38105
H      2.05203    1.32035    0.64828
H      1.37774    0.87647   -1.18574
