16

C      0.14392    2.15056   -0.62038
C     -0.63899    1.57389    0.54920
C     -1.89777    0.78485    0.22298
C     -0.65709   -1.14333    0.38685
C      0.29404   -0.97642   -0.78841
C      0.72667    1.13504   -1.59129
H      0.29924    3.22527   -0.69839
H     -0.25074    1.74296    1.55213
H     -2.54423    0.68322    1.09308
H     -2.11990    0.73102   -0.84148
H     -0.19030   -0.94556    1.35036
H     -1.52524   -1.76119    0.16346
H      1.32680   -1.10601   -0.46910
H     -0.19226   -1.22416   -1.73047
H      1.80410    1.07300   -1.44774
H      0.09763    1.08900   -2.47870
