16

C      0.43085    1.46667    0.23876
C     -1.01404    1.28854   -0.20165
C     -1.65253   -0.02487    0.22359
C     -0.09300   -1.55550   -0.48991
C      1.37498   -1.30167   -0.79704
C      1.49084    0.99482   -0.74477
H      0.63198    2.02350    1.15237
H     -1.55873    2.12094   -0.64394
H     -2.44374   -0.31048   -0.46760
H     -1.54993   -0.15148    1.30005
H     -0.20347   -2.04221    0.47769
H     -0.66378   -1.62962   -1.41406
H      2.02535   -1.42930    0.06671
H      1.62164   -1.40399   -1.85253
H      2.47829    1.00893   -0.28643
H      1.14569    1.11542   -1.77026
