16

C      0.39835    1.52594   -0.82732
C     -0.61421    1.01140    0.18430
C     -1.54033   -0.11171   -0.25669
C     -0.11579   -1.66738    0.65688
C      1.20707   -1.27505    0.01669
C      1.42064    0.54259   -1.37638
H      0.37408    2.57220   -1.12724
H     -0.63898    1.47454    1.16923
H     -2.38127   -0.23895    0.42299
H     -1.41780   -0.38650   -1.30302
H     -0.21006   -1.34747    1.69327
H     -0.63403   -2.48099    0.15210
H      1.84907   -0.76655    0.73404
H      1.43780   -1.91371   -0.83432
H      2.42473    0.81799   -1.05814
H      1.04515    0.09347   -2.29433
