16

C      0.07605    1.82542    0.61568
C     -1.21174    1.14490    1.05375
C     -2.09313    0.64553   -0.08085
C     -0.93364   -1.33921   -0.06085
C      0.47785   -1.20674    0.49041
C      1.15720    0.93897    0.01664
H      0.17967    2.90318    0.72921
H     -1.44198    1.05654    2.11412
H     -1.77456    1.00640   -1.05739
H     -3.07993    0.35423    0.27509
H     -1.61940   -1.75724    0.67422
H     -0.95542   -1.38613   -1.14835
H      1.21958   -1.66032   -0.16490
H      0.49759   -1.03695    1.56564
H      1.03337    0.85979   -1.06212
H      2.02384    0.89523    0.67417
