16

C     -0.13609    1.75043   -0.37409
C     -1.42785    1.26392    0.26475
C     -2.00259   -0.10256   -0.07580
C     -0.20021   -1.17544    0.86462
C      1.17350   -0.98382    0.24019
C      0.85681    0.85704   -1.10181
H      0.05411    2.82180   -0.33928
H     -1.94647    1.90956    0.97143
H     -1.97793   -0.28507   -1.14884
H     -2.68569   -0.48644    0.68007
H     -0.64404   -2.12391    0.56672
H     -0.31506   -0.57645    1.76648
H      1.35537   -1.62483   -0.62085
H      1.88691   -0.54165    0.93364
H      1.88196    1.18101   -0.93023
H      0.38069    0.35866   -1.94457
