16

C     -0.31134    1.20627   -1.44409
C     -1.50561    1.57792   -0.57863
C     -2.17812    0.49823    0.25535
C     -0.52435   -0.96703    0.88948
C      0.75244   -0.18859    0.61095
C      1.03344    1.57607   -0.83718
H     -0.44727    0.82740   -2.45561
H     -1.90492    2.58942   -0.62991
H     -2.31518    0.83418    1.28184
H     -2.74129   -0.16982   -0.39416
H     -0.73829   -1.02848    1.95521
H     -0.80097   -1.65337    0.09088
H      0.91747    0.58007    1.36411
H      1.42735   -0.80635    0.02087
H      0.95891    2.50585   -0.27567
H      1.88141    1.14464   -1.36647
