16

C      0.34819    1.53171   -0.49899
C     -0.90589    0.94893    0.13434
C     -1.16183   -0.54414   -0.00277
C      0.27714   -0.85677    1.76235
C      1.61196   -0.14088    1.62284
C      1.68732    0.81099   -0.46960
H      0.25853    2.49455   -0.99909
H     -1.61419    1.60885    0.63237
H     -1.99897   -0.91376    0.58707
H     -0.75800   -0.92018   -0.94131
H     -0.36931   -0.35059    2.47735
H      0.33339   -1.90358    1.46847
H      1.63118    0.83294    2.10929
H      2.43444   -0.81687    1.39500
H      2.50167    1.49051   -0.22380
H      1.66183   -0.10954   -1.05036
