16

C      0.37880    1.56582   -0.27359
C     -1.11365    1.27363   -0.29895
C     -1.68659   -0.12284   -0.48648
C     -0.68553   -1.97069    0.44485
C      0.77574   -1.54978    0.40985
C      1.42465    0.47749   -0.46144
H      0.70302    2.60465   -0.24298
H     -1.79774    2.12052   -0.30254
H     -2.51162   -0.26985    0.20852
H     -1.46883   -0.45130   -1.50138
H     -1.11879   -1.89962    1.44114
H     -0.97759   -2.62959   -0.37118
H      1.31396   -2.05269   -0.39185
H      1.09951   -1.21248    1.39308
H      1.41452    0.15860   -1.50237
H      2.22049    0.60196    0.27100
