16

C      1.74821    1.05463    0.51707
C      0.34349    1.51407    0.87638
C     -0.74608    0.48318    1.12867
C      0.05421   -1.51158    0.31351
C      1.36703   -1.69047   -0.43366
C      1.99316    0.47933   -0.86949
H      2.54019    1.26028    1.23518
H      0.15512    2.57371    1.04035
H     -1.54836    0.62371    0.40623
H     -0.74903    0.20493    2.18124
H      0.15721   -1.87335    1.33520
H     -0.78292   -1.51275   -0.38258
H      1.24458   -1.97053   -1.47861
H      2.22344   -1.86537    0.21543
H      3.04512    0.25142   -1.03308
H      1.17794    0.70785   -1.55397
