16

C     -0.44165    1.92692    0.43689
C     -1.64305    1.28456   -0.23947
C     -1.63823   -0.11945   -0.82452
C      0.08510   -1.46495   -0.11472
C      0.47670   -0.66990    1.12149
C      0.94865    1.37045    0.17055
H     -0.57539    2.80019    1.07307
H     -2.55770    1.87162   -0.30269
H     -2.38220   -0.72878   -0.31409
H     -1.27023   -0.08905   -1.84872
H      0.77617   -1.30963   -0.94153
H     -0.52037   -2.33251    0.14237
H     -0.37843   -0.35235    1.71582
H      1.49475   -0.89509    1.43486
H      1.65653    1.59474    0.96675
H      1.09399    1.23878   -0.90036
