16

C      0.15606    1.50603   -0.37107
C     -0.64933    1.12490   -1.60375
C     -1.93150    0.33857   -1.37726
C     -1.06824   -1.18796    0.10885
C      0.45064   -1.21649    0.03199
C      1.50263    0.80989   -0.24581
H     -0.19798    2.28115    0.30646
H     -0.34166    1.46650   -2.59059
H     -2.61811    0.89010   -0.73717
H     -2.10478   -0.38617   -2.17101
H     -1.42921   -0.58694    0.94181
H     -1.50315   -2.05680   -0.38235
H      0.79928   -1.48895   -0.96276
H      0.87795   -1.38427    1.01920
H      1.90727    0.88497    0.76213
H      1.99919    0.71356   -1.20990
