16

C     -0.49758    2.19071   -0.34769
C     -1.09587    1.53349    0.88663
C     -1.56804    0.09602    0.73081
C      0.48296   -0.92525    0.54521
C      1.70408   -0.25303   -0.06363
C      0.80259    1.67178   -0.94252
H     -0.99715    3.05584   -0.78034
H     -1.31561    2.14884    1.75741
H     -1.83064   -0.34736    1.68986
H     -1.95896   -0.07104   -0.27149
H      0.56149   -0.93478    1.63106
H      0.01117   -1.61217   -0.15543
H      2.30232    0.29449    0.66279
H      2.02959   -0.71889   -0.99227
H      1.62350    2.29544   -0.59255
H      0.58150    1.13837   -1.86550
