16

C      0.51232    0.84169    0.20942
C     -1.00323    0.85398    0.33737
C     -1.62196   -0.45329    0.80829
C      0.09545   -1.89930    1.30185
C      1.46770   -1.69670    0.67766
C      1.07736   -0.05305   -0.88313
H      1.09095    1.46340    0.89049
H     -1.56841    1.75649    0.11096
H     -1.95562   -0.35396    1.83986
H     -2.03077   -0.98369   -0.05012
H      0.10092   -1.58557    2.34438
H     -0.46118   -2.68511    0.79392
H      2.13506   -1.06886    1.26570
H      1.73282   -2.45742   -0.05471
H      0.32933   -0.64167   -1.41163
H      2.07141    0.27601   -1.18130
