16

C     -0.20226    1.39679   -1.02771
C     -1.37407    1.18896   -0.08055
C     -2.20668   -0.07900    0.03169
C     -0.37849   -1.29045    0.72028
C      0.93707   -0.82954    0.11153
C      0.41743    0.27031   -1.84048
H      0.28303    2.37130   -1.03310
H     -1.59558    2.01750    0.59003
H     -2.79975   -0.09686    0.94453
H     -2.38374   -0.55524   -0.93121
H     -0.50630   -0.91833    1.73543
H     -0.75984   -2.19176    0.24324
H      1.34456    0.05494    0.59834
H      1.44950   -1.61485   -0.44168
H      1.44285    0.47462   -2.14396
H     -0.32642   -0.37856   -2.29980
