16

C      1.18957    0.96511   -0.91551
C     -0.33019    1.01684   -0.88260
C     -1.24576   -0.18687   -0.72004
C     -0.46499   -1.81078    0.70731
C      0.98412   -1.34855    0.71919
C      1.91177   -0.35521   -1.13628
H      1.75577    1.88375   -0.77156
H     -0.79200    1.99110   -1.03348
H     -2.01942    0.01756    0.01817
H     -1.22347   -0.77804   -1.63401
H     -0.95557   -1.60112    1.65637
H     -0.67648   -2.59322   -0.01961
H      1.65216   -2.19542    0.57137
H      1.09293   -0.41075    1.26143
H      2.91460   -0.35662   -0.71243
H      1.48894   -0.89226   -1.98370
