16

C      0.42205    2.01696    0.69216
C     -0.79945    1.74450   -0.17221
C     -1.35917    0.33029   -0.15617
C     -0.32428   -0.79549    1.56011
C      1.17935   -0.91233    1.36220
C      1.65185    1.15153    0.46373
H      0.38110    2.85646    1.38409
H     -1.25018    2.54041   -0.76261
H     -2.32891    0.31299    0.33842
H     -0.91282   -0.25693   -0.95697
H     -0.57523   -0.00212    2.26219
H     -0.83165   -1.72359    1.30215
H      1.45383   -1.50446    0.49078
H      1.73007   -0.75617    2.28829
H      2.43570    1.39734    1.17821
H      1.68389    0.77837   -0.55854
