16

C     -0.10364    2.07008    0.54041
C     -1.26211    1.61988    1.41717
C     -1.87295    0.23704    1.24932
C      0.06701   -0.83172    0.63424
C      1.02084   -0.39505   -0.46724
C      0.04213    1.63852   -0.91081
H      0.63113    2.73179    0.99588
H     -1.62521    2.28329    2.20028
H     -1.96692   -0.28602    2.19953
H     -2.48376    0.19461    0.34908
H      0.45255   -0.55564    1.61428
H     -0.56322   -1.65304    0.29725
H      2.00691   -0.13099   -0.08871
H      0.74461   -0.72559   -1.46713
H     -0.89777    1.29582   -1.34032
H      0.93125    2.05528   -1.38101
