16

C     -0.03856    2.37636    0.11307
C     -1.54594    2.20460    0.22149
C     -2.21295    0.83782    0.19785
C     -0.76346   -0.94627    0.19028
C      0.50522   -0.26703    0.68300
C      0.70740    1.44945   -0.83452
H      0.46807    3.13491    0.70731
H     -2.15376    3.09995    0.34027
H     -2.58216    0.60018    1.19410
H     -2.57232    0.62352   -0.80726
H     -1.25067   -1.51342    0.98167
H     -0.75151   -1.12023   -0.88440
H      1.39845   -0.78893    0.34374
H      0.33629    0.32509    1.58089
H      1.78878    1.50222   -0.71988
H      0.09600    1.21446   -1.70416
