16

C      0.34412    1.81406   -0.55273
C     -0.72574    1.46502    0.47051
C     -1.60684    0.23573    0.30908
C      0.11413   -1.05563    1.11820
C      1.47996   -0.51969    0.71698
C      1.22605    0.74828   -1.18508
H      0.52005    2.86767   -0.76289
H     -0.83377    2.11843    1.33457
H     -2.29607    0.09624    1.14025
H     -1.69069   -0.08053   -0.72932
H     -0.10810   -0.82349    2.15842
H     -0.21713   -1.87038    0.47650
H      1.79075    0.35301    1.28893
H      2.08835   -1.26304    0.20449
H      2.26233    1.07311   -1.26214
H      0.65214    0.03153   -1.77007
