16

C     -0.07616    1.22460   -0.93484
C     -1.21405    0.71065   -0.06621
C     -1.04378   -0.40713    0.95121
C      0.98017    0.31649    1.76609
C      1.98765    0.40612    0.63002
C      1.01568    0.30041   -1.45184
H     -0.05734    2.28634   -1.17474
H     -2.17159    1.22222   -0.14757
H     -1.62354   -0.22679    1.85491
H     -0.69714   -1.33419    0.49767
H      1.11756   -0.57760    2.37194
H      0.53861    1.27796    2.02289
H      2.34973    1.42389    0.49450
H      2.46195   -0.54809    0.40670
H      1.81027    0.82595   -1.97888
H      0.66823   -0.72623   -1.55486
