16

C      0.10828    1.02129   -0.48069
C     -1.31344    0.75192   -0.01209
C     -2.11028   -0.33571   -0.71612
C     -0.71286   -2.08830   -0.20652
C      0.66746   -1.69023   -0.70645
C      1.20254    0.30811    0.29872
H      0.29006    1.70482   -1.30830
H     -1.73058    1.39062    0.76460
H     -2.89537   -0.74624   -0.08332
H     -2.01735   -0.24297   -1.79690
H     -0.81791   -1.95173    0.86849
H     -1.20162   -2.77576   -0.89489
H      1.45553   -2.21375   -0.16774
H      0.63677   -1.27384   -1.71194
H      2.18311    0.41574   -0.16197
H      0.91256    0.12001    1.33113
