16

C      0.11203    1.79971    0.46374
C     -1.03898    0.84086    0.72682
C     -1.13217   -0.55378    0.12692
C      0.96915   -1.41699   -0.22436
C      1.82366   -0.33665    0.42089
C      1.06248    1.52674   -0.69197
H      0.27292    2.64758    1.12740
H     -1.83390    1.18081    1.38846
H     -1.34972   -1.28863    0.90022
H     -1.42571   -0.49653   -0.91992
H      0.87442   -2.29091    0.41800
H      0.94770   -1.34838   -1.31072
H      2.81690   -0.30200   -0.02365
H      1.48986   -0.09975    1.42975
H      2.02291    2.02854   -0.58657
H      0.50227    1.24797   -1.58291
