16

C      0.50638    1.59520   -0.23459
C     -0.94231    1.21858    0.03540
C     -1.73710    0.30809   -0.88812
C     -0.40996   -1.47889   -0.31415
C      1.05326   -1.25657   -0.66524
C      1.38789    0.93356   -1.28280
H      0.92422    2.41115    0.35264
H     -1.42140    1.62079    0.92642
H     -1.55859    0.55442   -1.93348
H     -2.60646   -0.14302   -0.41268
H     -0.60436   -1.33770    0.74774
H     -0.92247   -2.09559   -1.05060
H      1.68278   -1.17740    0.21950
H      1.30228   -1.57847   -1.67505
H      2.43770    0.92409   -0.99446
H      0.91943    0.95021   -2.26544
