16

C      0.43448    2.13147    0.27492
C     -0.78170    1.78072    1.11832
C     -1.80686    0.86096    0.47285
C     -0.65928   -1.12469    0.62869
C      0.85645   -1.00833    0.57618
C      1.24457    1.03664   -0.40233
H      0.67952    3.17962    0.11199
H     -0.96062    2.31191    2.05161
H     -2.56826    0.53460    1.17929
H     -1.85077    1.03703   -0.60065
H     -0.98776   -1.33441    1.64528
H     -1.08623   -1.39351   -0.33607
H      1.29429   -0.68969    1.52069
H      1.29779   -1.59322   -0.22910
H      2.27425    1.05452   -0.04912
H      0.77922    0.75462   -1.34531
