16

C     -0.00109    1.79278    0.78755
C     -1.34743    1.14075    1.06266
C     -1.78244   -0.18413    0.45520
C     -0.05700   -1.37466    1.39836
C      1.09026   -0.97422    0.48339
C      1.03777    1.23025   -0.17051
H      0.20203    2.75421    1.25619
H     -2.02416    1.64968    1.74694
H     -2.50445   -0.71933    1.06969
H     -1.61003   -0.19891   -0.61968
H     -0.08820   -0.80390    2.32496
H     -0.42089   -2.37616    1.17495
H      2.01010   -0.88279    1.05859
H      0.91374   -1.26739   -0.55016
H      0.62571    1.17515   -1.17674
H      2.05222    1.41495    0.17894
