16

C     -0.50303    1.20282   -0.76064
C     -1.45262    1.01646    0.41281
C     -1.97574   -0.39171    0.65143
C      0.10400   -1.26153    1.10103
C      0.96123   -1.09400   -0.14427
C      0.99115    1.18164   -0.47683
H     -0.92126    1.37180   -1.75147
H     -1.76031    1.88428    0.99369
H     -2.38816   -0.51284    1.65171
H     -2.17924   -0.91320   -0.28236
H      0.31548   -0.50374    1.85359
H     -0.27469   -2.27879    1.18546
H      2.02138   -1.16473    0.09323
H      0.41841   -1.31485   -1.06182
H      1.59870    1.04591   -1.37002
H      1.21287    1.67198    0.46959
