16

C     -0.52528    0.80065   -0.99080
C     -1.70732    0.18324   -0.25935
C     -1.83677   -1.32850   -0.36610
C      0.23532   -1.62084    0.58521
C      1.00923   -0.35265    0.91156
C      0.41389    1.61700   -0.11611
H     -0.38868    0.68356   -2.06450
H     -2.43458    0.79710    0.26930
H     -1.71723   -1.65966   -1.39633
H     -2.40959   -1.75545    0.45543
H      0.54367   -2.07098   -0.35693
H     -0.16818   -2.07769    1.48733
H      0.66531    0.11726    1.83146
H      1.99258   -0.37274    0.44470
H      1.37852    1.80101   -0.58616
H     -0.13826    2.19991    0.61919
