16

C      0.23911    1.43444    0.98309
C     -1.21519    0.99228    0.92863
C     -1.68290   -0.24984    0.18570
C      0.06216   -1.66469    0.67253
C      1.28895   -1.01106    0.05491
C      1.14566    1.26713   -0.22675
H      0.59492    1.94272    1.87766
H     -1.94474    1.59613    1.46560
H     -2.40118   -0.82402    0.76856
H     -1.52619   -0.15730   -0.88770
H     -0.04033   -1.46838    1.73850
H     -0.31378   -2.49161    0.07234
H      1.29896   -1.09370   -1.03063
H      2.09714   -0.95149    0.78196
H      2.19629    1.43914    0.00111
H      0.59105    1.41074   -1.15255
