16

C      0.57934    1.55078   -0.38839
C     -0.94092    1.50968   -0.36417
C     -1.77897    0.29919   -0.74620
C     -0.61726   -1.16286    0.59427
C      0.75772   -1.14581   -0.05600
C      1.37066    0.66342   -1.33703
H      1.10387    2.25592    0.25415
H     -1.44235    2.39964    0.01234
H     -2.71573    0.25409   -0.19323
H     -1.50075   -0.12352   -1.71017
H     -1.18099   -2.06100    0.34753
H     -0.70996   -0.49317    1.44764
H      1.52400   -0.96415    0.69577
H      0.77981   -1.69873   -0.99362
H      0.89117    0.63019   -2.31392
H      2.42243    0.55845   -1.07612
