16

C      0.39231    1.14684   -0.10369
C     -0.93034    0.85504    0.58833
C     -1.28315   -0.56063    1.01842
C      0.83695   -1.10261    1.72233
C      1.47008   -1.52044    0.40391
C      1.00751    0.16598   -1.09010
H      0.89359    2.07831    0.15381
H     -1.60501    1.67763    0.81934
H     -1.66809   -0.60140    2.03601
H     -1.48904   -1.18295    0.14914
H      0.50386   -1.95842    2.30712
H      1.15702   -0.11697    2.05609
H      2.54112   -1.32511    0.39721
H      0.89073   -2.28658   -0.10867
H      2.03643    0.42895   -1.32986
H      0.24701   -0.34148   -1.68124
