16

C      0.08655    2.23107   -0.25690
C     -1.03076    1.74007    0.65084
C     -1.96232    0.62602    0.19846
C     -0.26162   -0.87584    0.56733
C      1.14183   -0.28947    0.55378
C      0.90808    1.27878   -1.11235
H      0.33840    3.28998   -0.23489
H     -1.14239    2.19703    1.63264
H     -2.61098    0.25737    0.99134
H     -2.12208    0.65532   -0.87808
H     -0.57107   -1.08860    1.58924
H     -0.51985   -1.34718   -0.37951
H      1.31757    0.45027    1.33303
H      1.84897   -0.93591    0.03666
H      1.97518    1.49187   -1.07761
H      0.29675    0.81908   -1.88713
