16

C      0.87064    1.38229   -0.95108
C     -0.29304    1.27408    0.02234
C     -1.53530    0.58812   -0.52518
C     -1.04936   -1.48519    0.34044
C      0.44616   -1.51120    0.06391
C      1.52887    0.04221   -1.24174
H      1.17676    2.33522   -1.37935
H     -0.16549    1.66047    1.03211
H     -1.44315    0.31479   -1.57500
H     -2.40805    0.78350    0.09568
H     -1.29734   -1.24143    1.37216
H     -1.64345   -2.02855   -0.39246
H      1.00428   -1.14893    0.92566
H      0.69250   -2.25273   -0.69423
H      2.47613   -0.03047   -0.71001
H      1.19510   -0.31888   -2.21309
