16

C      0.09274    1.24932    0.50577
C     -1.05116    1.47153   -0.47174
C     -1.81647    0.17534   -0.69020
C     -0.71411   -1.59837    0.27043
C      0.70477   -1.59828   -0.27775
C      1.29720    0.62194   -0.17922
H     -0.03106    1.52563    1.55148
H     -1.21806    2.43273   -0.95487
H     -2.64831    0.11948    0.00996
H     -1.64488   -0.18370   -1.70359
H     -0.76200   -1.19046    1.27872
H     -1.33645   -2.34527   -0.21963
H      1.43572   -1.90204    0.46976
H      0.73436   -1.70287   -1.36104
H      2.13107    0.55058    0.51712
H      1.26293    0.74105   -1.26086
