16

C      0.10086    0.45069    1.50116
C     -1.06655    0.34760    0.53165
C     -0.96951   -0.51229   -0.71925
C      0.43244   -2.15525    0.06765
C      1.75802   -1.42315   -0.07574
C      1.51429    0.61414    0.96353
H     -0.11134    0.41973    2.56851
H     -1.98185    0.89709    0.74493
H     -0.42915    0.02991   -1.49342
H     -1.76325   -1.25538   -0.77504
H      0.30911   -2.90592   -0.71121
H      0.02287   -2.12327    1.07590
H      1.89044   -0.98746   -1.06466
H      2.48966   -1.81537    0.62868
H      2.26353    0.40722    1.72586
H      1.52663    1.28541    0.10646
