16

C      0.08200    1.49118   -1.02104
C     -1.22160    1.07564   -0.35667
C     -1.88190   -0.23744   -0.74830
C     -0.26398   -1.47365    0.31855
C      1.22671   -1.25413    0.11031
C      1.17542    0.49673   -1.38030
H      0.21273    2.54191   -1.27421
H     -1.68593    1.76078    0.35057
H     -2.69389   -0.51562   -0.07850
H     -1.72517   -0.46288   -1.80183
H     -0.59715   -1.03406    1.25721
H     -0.62689   -2.32744   -0.25125
H      1.70049   -0.74159    0.94588
H      1.67445   -1.92293   -0.62289
H      2.14134    0.83640   -1.01025
H      0.87435   -0.09214   -2.24511
