16

C      0.58898    1.15416    0.09061
C     -0.92298    1.15878    0.25609
C     -1.52326   -0.18694    0.63326
C     -0.21271   -2.03019    0.22225
C      1.19565   -1.64734   -0.20629
C      1.09957    0.44578   -1.15479
H      1.19832    1.66376    0.83507
H     -1.49027    2.08544    0.18769
H     -2.26657   -0.45896   -0.11428
H     -1.44990   -0.30627    1.71293
H     -0.22651   -2.38498    1.25146
H     -0.82567   -2.32749   -0.62701
H      1.80030   -1.27409    0.61859
H      1.49505   -2.12949   -1.13539
H      2.17133    0.58809   -1.28290
H      0.30286    0.21919   -1.86136
