16

C     -0.06822    1.35355    0.56552
C     -1.01213    0.21850    0.93172
C     -1.68401   -0.53961   -0.20291
C     -0.00488   -2.10866   -0.15179
C      1.18522   -1.20666   -0.44123
C      1.31832    1.04202    0.02330
H     -0.37671    2.37698    0.77198
H     -1.19561    0.03012    1.98816
H     -2.44721   -1.23313    0.14619
H     -1.54165   -0.05001   -1.16486
H     -0.12470   -2.35609    0.90167
H     -0.35567   -2.65684   -1.02459
H      1.20266   -0.93267   -1.49477
H      1.97827   -1.39526    0.28047
H      1.40746    1.41621   -0.99521
H      2.03272    0.98504    0.84288
