16

C      0.44215    1.31384   -1.18615
C     -0.99630    1.52351   -0.73854
C     -1.86740    0.39788   -0.20219
C     -0.24264   -0.50280    1.15169
C      1.02769   -0.87484    0.40232
C      0.96822   -0.00695   -1.72683
H      1.11470    2.16473   -1.09183
H     -1.39432    2.53656   -0.76085
H     -2.49311    0.71728    0.62955
H     -2.01626   -0.38220   -0.94693
H     -0.14330    0.43723    1.69188
H     -0.87930   -1.36585    1.33915
H      1.00700   -1.88639    0.00025
H      1.87755   -0.25690    0.68735
H      2.03931    0.01561   -1.92068
H      0.18822   -0.62585   -2.16716
