16

C      0.53027    1.49003    0.45732
C     -0.90381    0.98371    0.43446
C     -1.37477   -0.20386   -0.39101
C      0.26224   -1.60820    0.40402
C      1.52643   -0.97581   -0.15781
C      1.46152    1.25305   -0.72173
H      0.87730    2.06156    1.31647
H     -1.61139    1.48071    1.09593
H     -1.06695   -0.14625   -1.43372
H     -2.20712   -0.72873    0.07486
H     -0.08317   -2.45901   -0.18091
H      0.07720   -1.36494    1.44897
H      2.25699   -0.82131    0.63450
H      1.64523   -1.16697   -1.22302
H      2.51547    1.39776   -0.49026
H      0.93187    1.39610   -1.66212
