16

C      0.18777    1.30708   -0.86350
C     -0.73052    0.73706    0.20666
C     -1.50656   -0.53959   -0.07873
C      0.20917   -1.97241    0.45732
C      1.20722   -1.64519   -0.64292
C      1.50151    0.58518   -1.12130
H     -0.02649    2.28316   -1.29543
H     -0.85002    1.31011    1.12456
H     -2.11137   -0.85268    0.77067
H     -1.61250   -0.71488   -1.14802
H     -0.38114   -2.85952    0.23391
H      0.47042   -1.51988    1.41247
H      2.23048   -1.72279   -0.27927
H      0.77928   -1.82314   -1.62807
H      2.19280    0.80002   -0.30811
H      1.63567    0.41567   -2.18835
