16

C     -0.61247    1.69739   -1.32919
C     -1.14721    1.02645   -0.07327
C     -1.80027   -0.33198   -0.27756
C      0.11004   -1.58395   -0.53699
C      1.24971   -0.57666   -0.52258
C      0.53782    0.99959   -2.03872
H     -1.05174    2.62754   -1.68564
H     -1.04566    1.54138    0.88052
H     -2.13974   -0.75026    0.66855
H     -2.17386   -0.45249   -1.29305
H     -0.11441   -1.94509   -1.53926
H     -0.00380   -2.07961    0.42566
H      1.24919    0.04718    0.36970
H      2.07899   -0.88104   -1.15896
H      1.45660    1.57609   -1.94487
H      0.15314    0.33755   -2.81270
