16

C      0.42685    1.78551   -0.04495
C     -0.58117    1.06097    0.83390
C     -1.60096    0.11412    0.21987
C     -0.09968   -1.58537   -0.15684
C      1.18607   -1.13716   -0.83484
C      1.12217    1.12821   -1.22733
H      0.63152    2.83228    0.17323
H     -0.60709    1.30863    1.89371
H     -1.84676    0.39479   -0.80293
H     -2.17928   -0.42164    0.97076
H      0.03401   -1.73639    0.91304
H     -0.80638   -2.03616   -0.85161
H      2.01217   -1.04523   -0.13167
H      1.19928   -1.35270   -1.90194
H      2.20278    1.23057   -1.14282
H      0.44523    1.08756   -2.07904
