16

C      0.69474    0.93166   -0.63761
C     -0.60504    1.30162    0.06033
C     -1.74922    0.31244   -0.10059
C     -0.73941   -1.34983    1.12463
C      0.71505   -1.53603    0.72016
C      1.80659    0.43914    0.27604
H      0.79047    1.06848   -1.71339
H     -0.67940    2.25177    0.58652
H     -2.55668    0.50296    0.60442
H     -1.74294   -0.15562   -1.08355
H     -0.83859   -0.76279    2.03616
H     -1.38064   -2.11480    0.68990
H      1.35236   -1.71120    1.58531
H      0.81019   -1.83845   -0.32138
H      1.76501    0.90795    1.25778
H      2.63293    0.00263   -0.28248
