16

C     -0.08356    1.06655   -1.13760
C     -1.40373    0.52807   -0.60785
C     -1.59230   -0.89416   -0.10261
C      0.40337   -1.72018    0.68416
C      1.38267   -0.57662    0.46755
C      0.97344    0.12013   -1.68585
H      0.11479    2.13345   -1.05049
H     -2.25550    1.20601   -0.59848
H     -1.99682   -0.88824    0.90815
H     -1.73818   -1.56331   -0.94895
H      0.15013   -1.82155    1.73817
H      0.45356   -2.47697   -0.09691
H      1.07776    0.32573    0.99493
H      2.37211   -0.93562    0.18922
H      1.92671    0.61514   -1.86351
H      0.53629   -0.75891   -2.15651
