16

C     -0.36395    1.97678    0.12078
C     -1.63881    1.18953    0.38234
C     -1.63937   -0.32949    0.30411
C      0.40996   -1.25620    0.77898
C      1.26589   -0.87852   -0.42036
C      0.81968    1.36926   -0.61643
H     -0.35705    3.03624    0.37120
H     -2.57855    1.71832    0.53228
H     -2.05768   -0.75464    1.21492
H     -1.64480   -0.62759   -0.74300
H      0.01954   -2.26933    0.69841
H      0.62997   -0.64746    1.65439
H      2.31568   -0.77768   -0.14995
H      0.82153   -1.18937   -1.36442
H      1.73062    1.60957   -0.07076
H      0.56542    1.27169   -1.67054
