16

C     -0.57986    1.46900   -0.81990
C     -1.72382    1.10853    0.11544
C     -1.46150    0.48194    1.47637
C     -0.23079   -1.34565    0.82116
C      0.96485   -0.75643    0.08839
C      0.03774    0.37979   -1.68347
H     -0.30339    2.51676   -0.92455
H     -2.72609    1.40911   -0.18504
H     -2.29685   -0.13192    1.80907
H     -0.70171    1.03655    2.02449
H     -1.01247   -1.69436    0.14832
H      0.03718   -1.66346    1.82740
H      1.44930   -1.50570   -0.53549
H      1.34945    0.14239    0.56749
H      1.01601    0.65692   -2.07270
H     -0.72406   -0.29898   -2.06328
