16

C      0.30344    0.99657   -0.10758
C     -1.20291    0.78862   -0.14131
C     -1.83801   -0.59244   -0.19493
C     -0.57807   -1.39757    1.55101
C      0.74820   -1.68522    0.86402
C      1.28786   -0.03254   -0.64179
H      0.67669    1.93947    0.28846
H     -1.84687    1.66317   -0.06589
H     -2.74770   -0.66436    0.39888
H     -1.52263   -1.13533   -1.08439
H     -0.58100   -0.46045    2.10521
H     -1.16127   -2.30447    1.70183
H      1.57693   -1.48693    1.54168
H      0.64658   -2.39424    0.04410
H      2.29178    0.10107   -0.24225
H      0.95453   -0.42489   -1.60111
