16

C      0.68382    1.60433    0.35459
C     -0.73353    1.36410    0.85146
C     -1.65392    0.28099    0.30985
C     -0.56743   -1.73422    0.10371
C      0.84413   -1.31289    0.48278
C      1.36776    0.64401   -0.60643
H      1.22145    2.48459    0.70288
H     -1.12599    2.05303    1.59750
H     -2.24046   -0.16437    1.11170
H     -1.86585    0.48107   -0.73914
H     -0.73971   -1.76056   -0.97098
H     -1.02492   -2.32847    0.89296
H      0.87958   -0.83868    1.46217
H      1.58130   -1.88373   -0.07939
H      2.43371    0.55666   -0.40287
H      0.78884    0.52712   -1.52103
