16

C      0.05334    1.21964   -0.08764
C     -1.21911    0.46711    0.27012
C     -1.38736   -0.83206   -0.50279
C      0.28651   -1.85915    0.69188
C      1.65941   -1.24040    0.90632
C      1.23719    1.01972    0.84621
H      0.04006    1.92166   -0.91963
H     -1.93583    0.88187    0.97686
H     -0.96542   -0.75297   -1.50331
H     -2.19319   -1.44939   -0.10923
H     -0.32466   -1.75796    1.58718
H      0.31144   -2.60288   -0.10283
H      1.96331   -1.22585    1.95169
H      2.27800   -1.26543    0.01075
H      0.91979    1.13389    1.88137
H      2.17744    1.21080    0.33170
