16

C      0.40382    1.84828   -0.58883
C     -0.79208    1.19446    0.08628
C     -1.76102    0.40566   -0.78119
C     -0.53000   -1.49043   -0.36465
C      0.84410   -1.18177   -0.93936
C      1.33863    1.00695   -1.44432
H      0.56400    2.91532   -0.44399
H     -0.91217    1.32450    1.16046
H     -2.69000    0.18474   -0.25820
H     -1.54823    0.46624   -1.84719
H     -0.57605   -1.40153    0.71947
H     -1.15759   -2.08379   -1.02753
H      0.90116   -1.42277   -1.99955
H      1.60483   -1.20609   -0.16089
H      2.33380    0.98317   -1.00341
H      0.99460    1.01980   -2.47718
