16

C      0.04643    1.66698   -0.54984
C     -1.16721    1.54315    0.35855
C     -2.06341    0.31484    0.31842
C     -0.39178   -1.05499    1.10153
C      0.56177   -1.38042   -0.03800
C      0.65427    0.51576   -1.33646
H      0.47631    2.65960   -0.67281
H     -1.37406    2.34778    1.06211
H     -2.66367    0.20151    1.21963
H     -2.24347   -0.01451   -0.70355
H      0.00111   -0.28859    1.76757
H     -1.08545   -1.87175    1.29407
H      0.08433   -1.95355   -0.83103
H      1.59548   -1.36515    0.30341
H     -0.03029    0.20012   -2.12199
H      1.74139    0.53991   -1.28247
