16

C      0.20752    0.85466   -0.30180
C     -0.78031    0.64575    0.83576
C     -1.23561   -0.73975    1.26776
C      0.85422   -1.68864    1.14021
C      1.28020   -1.69278   -0.32000
C      0.22994   -0.04254   -1.52984
H      0.91627    1.67577   -0.20874
H     -1.11022    1.51938    1.39534
H     -1.28167   -0.84320    2.35058
H     -1.78698   -1.24499    0.47652
H      1.30120   -0.88072    1.71711
H      0.49018   -2.66032    1.46982
H      2.26896   -1.25395   -0.44300
H      0.74905   -2.44151   -0.90532
H      1.05756    0.17896   -2.20164
H     -0.74529   -0.47892   -1.73916
