16

C      0.47813    0.26163   -0.27467
C     -0.92400    0.14790    0.30375
C     -1.91806   -0.94508   -0.05790
C     -0.43709   -2.58853    0.56646
C      0.66870   -2.51420   -0.47539
C      0.90628   -0.48381   -1.52948
H      1.19336    0.91953    0.21608
H     -1.18028    0.85408    1.09169
H     -1.94167   -1.17704   -1.12136
H     -2.67110   -1.08560    0.71574
H     -0.18028   -2.08933    1.49930
H     -1.13723   -3.39839    0.36828
H      1.64807   -2.47167   -0.00172
H      0.36756   -2.91263   -1.44280
H      0.14686   -0.40314   -2.30544
H      1.98509   -0.59313   -1.62717
