16

C      0.54931    1.24947   -0.28208
C     -0.91447    1.65511   -0.20308
C     -2.04390    0.63644   -0.18781
C     -0.91802   -1.20482    0.60350
C      0.58170   -1.41482    0.46050
C      1.01683    0.12419   -1.19241
H      1.25072    1.81235    0.33144
H     -1.15613    2.71599   -0.16627
H     -2.67313    0.75251    0.69305
H     -2.28526    0.34118   -1.20756
H     -1.16024   -0.92370    1.62703
H     -1.46951   -1.76570   -0.14924
H      1.17213   -0.90476    1.21983
H      0.83888   -2.29293   -0.12953
H      2.09012   -0.05147   -1.14217
H      0.29471   -0.09287   -1.97774
