16

C      0.56853    1.69697   -0.19671
C     -0.86666    1.45586   -0.63890
C     -1.19323    0.28226   -1.54969
C     -0.28443   -1.56257   -0.52269
C      1.22957   -1.61240   -0.38471
C      1.66065    0.64606   -0.32490
H      0.84417    2.69672    0.13453
H     -1.62391    2.19903   -0.39503
H     -2.20843   -0.07287   -1.38060
H     -0.54966    0.29343   -2.42776
H     -0.75814   -1.23688    0.40189
H     -0.62604   -2.20928   -1.32916
H      1.74560   -1.78560   -1.32760
H      1.53109   -1.89222    0.62333
H      2.01258    0.64814   -1.35517
H      2.13428    0.50747    0.64556
