16

C     -0.45644    1.33461   -0.48650
C     -0.72053    1.25353    1.00920
C     -1.77538    0.23845    1.42205
C     -0.69855   -1.57043    0.49878
C      0.71298   -1.18384    0.08426
C      0.89978    0.84920   -0.97494
H     -1.20106    1.77270   -1.14893
H     -0.23655    1.94092    1.70090
H     -1.63708   -0.10121    2.44715
H     -2.66930    0.33698    0.80844
H     -0.68034   -2.18024    1.40053
H     -1.39826   -1.54390   -0.33490
H      1.28869   -0.79241    0.92132
H      1.01629   -1.73156   -0.80644
H      1.71147    1.31469   -0.41836
H      0.84711    0.47550   -1.99617
