16

C      1.02606    2.39095    0.28729
C     -0.48940    2.42488    0.16233
C     -1.19351    1.08132    0.27476
C      0.03781   -0.85776    0.18616
C      1.35594   -0.34073    0.74194
C      1.74391    1.44128   -0.65946
H      1.52081    3.00620    1.03689
H     -1.01796    3.37430    0.09589
H     -1.64228    0.82532   -0.68357
H     -1.46143    0.93165    1.31933
H     -0.56248   -1.36933    0.93668
H      0.09026   -1.03647   -0.88653
H      1.22895    0.17435    1.69267
H      2.21474   -0.88807    0.35693
H      2.82323    1.46115   -0.51807
H      1.14283    1.22167   -1.54025
