16

C      0.09371    2.15990    0.25039
C     -1.16132    1.81802    1.03870
C     -1.87214    0.54274    0.61213
C     -0.62756   -0.92856   -0.64100
C      0.79615   -0.53719   -1.00650
C      1.25870    1.19858    0.42988
H      0.12915    3.10153   -0.29485
H     -1.54416    2.48913    1.80567
H     -2.56034    0.79186   -0.19388
H     -1.92323   -0.12783    1.46831
H     -0.63539   -1.66613    0.15979
H     -1.29416   -0.80344   -1.49266
H      1.55347   -1.17962   -0.56028
H      0.85517    0.06557   -1.91123
H      2.12292    1.51504   -0.15175
H      1.15374    0.61468    1.34277
