16

C      0.66618    1.63529   -0.44350
C     -0.61626    1.45037    0.35311
C     -1.70736    0.66274   -0.35587
C     -0.73575   -1.35664    0.15608
C      0.54742   -1.68828   -0.59037
C      1.42289    0.41058   -0.93445
H      1.01639    2.64628   -0.64464
H     -0.69922    1.88408    1.34821
H     -2.60287    0.57335    0.25682
H     -1.56447    0.63588   -1.43484
H     -1.59604   -1.86776   -0.27287
H     -0.54105   -1.01885    1.17260
H      1.30427   -2.09468    0.07848
H      0.37908   -1.87953   -1.64888
H      2.22862    0.19137   -0.23584
H      1.30734    0.34383   -2.01497
