16

C      0.41975    1.44728    0.29753
C     -1.05960    1.13883    0.12482
C     -1.66689   -0.22593   -0.16189
C     -0.30222   -1.95370    0.49881
C      1.05692   -1.72380   -0.14430
C      1.56671    0.45307    0.39550
H      0.69167    2.49564    0.40808
H     -1.75271    1.97784    0.15457
H     -2.39529   -0.48561    0.60447
H     -1.58570   -0.44509   -1.22524
H     -0.32616   -1.62694    1.53707
H     -0.86687   -2.71790   -0.03269
H      0.97806   -1.49480   -1.20575
H      1.85248   -2.19522    0.43032
H      1.73375    0.19853    1.44079
H      2.21678    0.55241   -0.47218
