16

C      1.18047    1.99527    0.38938
C      0.19064    1.70610    1.50745
C     -0.88102    0.64302    1.32044
C      0.32991   -1.30088    1.51776
C      1.74701   -0.92370    1.11370
C      1.93075    0.87265   -0.31087
H      1.35004    3.02812    0.08991
H      0.20281    2.36011    2.37769
H     -1.42122    0.44240    2.24416
H     -1.17801    0.57979    0.27492
H     -0.24583   -1.75080    0.71065
H      0.25063   -1.43331    2.59550
H      2.24213   -0.32782    1.87863
H      2.14232   -1.60420    0.36138
H      3.00568    0.98230   -0.17736
H      1.32386    0.45128   -1.11053
