16

C      0.13766    1.58976    0.13585
C     -1.26876    1.10155    0.44738
C     -1.85712   -0.01662   -0.39942
C     -0.53435   -1.57409    0.65349
C      0.74512   -1.58238   -0.16905
C      1.30249    0.64875   -0.13103
H      0.31606    2.66350    0.15786
H     -1.82342    1.56734    1.26015
H     -2.79738   -0.39248    0.00054
H     -1.47073    0.01460   -1.41679
H     -0.42389   -1.04403    1.59803
H     -1.19403   -2.39861    0.38830
H      1.59333   -1.92999    0.41835
H      0.54363   -1.65007   -1.23683
H      1.90162    0.55052    0.77269
H      1.54137    0.65324   -1.19322
