16

C      0.00790    0.76119   -1.34220
C     -0.18533   -0.66397   -0.84724
C     -1.32378   -0.86027    0.14217
C     -0.32095    0.55570    1.64995
C      1.09096    0.98923    1.28626
C      1.32285    1.42355   -0.96043
H     -0.73647    1.24016   -1.97599
H      0.43283   -1.47711   -1.22391
H     -1.20930   -1.77022    0.72887
H     -2.21663   -0.32186   -0.17129
H     -1.05994    1.31101    1.38778
H     -0.29983   -0.18715    2.44561
H      1.27071    2.01894    1.59078
H      1.77089    0.14478    1.18662
H      1.22130    2.50419   -0.87540
H      2.17012    0.79681   -1.23366
