16

C      0.01420    1.40377    0.24699
C     -1.33884    0.80723    0.60316
C     -1.76589   -0.61254    0.26342
C      0.11542   -1.63303    1.10206
C      1.23301   -1.03534    0.26094
C      0.81421    0.88281   -0.93713
H      0.39397    2.24098    0.83014
H     -2.01808    1.44045    1.17139
H     -2.44047   -1.03125    1.00836
H     -1.63212   -0.85034   -0.79056
H     -0.01434   -1.15060    2.06941
H     -0.15800   -2.63934    0.78914
H      1.96961   -0.55106    0.89986
H      1.32086   -1.52015   -0.70993
H      1.86156    1.17999   -0.92911
H      0.15842    0.66595   -1.77870
