16

C      0.55011    2.11362    0.44977
C     -0.43493    1.52097    1.44571
C     -1.75009    0.96464    0.92188
C     -0.70009   -0.96237    0.23768
C      0.78408   -0.73220   -0.00306
C      0.91030    1.40389   -0.84642
H      1.03643    3.04960    0.71931
H     -0.19284    1.52979    2.50709
H     -2.33985    0.46184    1.68654
H     -2.06540    1.49325    0.02384
H     -1.28850   -0.92437   -0.67756
H     -0.85482   -1.51672    1.16186
H      1.33492   -0.46394    0.89690
H      1.13048   -1.21128   -0.91729
H      1.98041    1.44683   -1.04222
H      0.06135    1.30718   -1.52114
