16

C      0.49484    0.43158   -1.22635
C     -0.32494    1.35098   -0.33410
C     -1.63433    0.83951    0.24679
C     -0.41776   -0.28308    1.84171
C      0.96160   -0.74043    1.39237
C      0.72385   -1.03093   -0.87680
H      0.95334    0.85969   -2.11613
H      0.02238    2.36662   -0.15230
H     -2.08314    1.50997    0.97780
H     -2.10210    0.12269   -0.42603
H     -1.16533   -1.07083    1.76482
H     -0.33269    0.56191    2.52296
H      1.66846    0.07644    1.25671
H      1.13873   -1.79212    1.61125
H     -0.20064   -1.60556   -0.89738
H      1.75997   -1.33033   -1.02557
