16

C      0.01454    1.89425   -0.69214
C     -1.13317    1.41211    0.18176
C     -1.75970    0.07084   -0.16755
C      0.02292   -1.20133    0.53094
C      1.35979   -1.18069   -0.19436
C      1.13381    0.93512   -1.06746
H      0.02231    2.92571   -1.04034
H     -1.47723    2.04553    0.99761
H     -2.43311   -0.27706    0.61399
H     -1.73688   -0.11418   -1.24019
H      0.06096   -0.58538    1.42787
H     -0.54103   -2.09498    0.26886
H      2.19864   -1.04227    0.48574
H      1.35313   -1.69777   -1.15244
H      2.03498    1.22497   -0.52970
H      0.91549    0.52896   -2.05371
