16

C     -0.12310    1.15314    0.01669
C     -1.64279    1.09350   -0.00300
C     -2.26417   -0.23059    0.41442
C     -0.58490   -1.70879    0.94266
C      0.81101   -1.39357    0.42709
C      0.53669    0.32573   -1.07584
H      0.37959    1.76837    0.76101
H     -2.21057    1.96598   -0.32177
H     -2.65151   -0.14747    1.42851
H     -2.61630   -0.75463   -0.47255
H     -0.67167   -1.48021    2.00359
H     -1.07286   -2.47947    0.34827
H      1.39780   -0.78161    1.11011
H      1.15525   -2.08585   -0.33946
H     -0.15212   -0.24761   -1.69401
H      1.53794    0.69520   -1.29105
