16

C     -0.04356    0.81518   -0.02561
C     -1.33368    0.02307    0.12140
C     -1.55212   -1.32088   -0.55656
C      0.32484   -2.29156    0.34833
C      1.53684   -1.83804   -0.45107
C      1.12666    0.38114   -0.89496
H      0.01795    1.77672    0.48122
H     -2.10596    0.42657    0.77407
H     -2.29265   -1.92484   -0.03484
H     -1.23610   -1.31422   -1.59839
H      0.21913   -1.74881    1.28618
H      0.00614   -3.29214    0.06089
H      2.40785   -1.73693    0.19428
H      1.47059   -2.08774   -1.50871
H      0.81065    0.32618   -1.93536
H      2.07846    0.64625   -0.43768
