16

C      0.02168    1.56215   -1.07626
C     -0.95938    1.54433    0.08591
C     -1.92970    0.37348    0.05221
C     -0.31708   -0.90191    1.08025
C      1.12634   -0.42551    1.02282
C      1.21604    0.62182   -1.02293
H     -0.16725    2.21446   -1.92714
H     -0.96563    2.34777    0.82051
H     -2.62746    0.37339    0.88795
H     -2.03671   -0.02294   -0.95612
H     -0.72488   -0.73705    2.07617
H     -0.52943   -1.65436    0.32259
H      1.30119    0.49540    1.57661
H      1.81802   -1.22813    0.77236
H      2.12349    1.17178   -0.77921
H      1.01598   -0.27856   -1.60138
