16

C     -0.18879    1.81730   -0.00591
C     -1.05205    1.57266    1.22225
C     -1.32257    0.12721    1.61089
C     -0.76781   -1.07688   -0.26699
C      0.74103   -0.93788   -0.40031
C      1.23036    1.27044    0.01674
H     -0.61495    2.38485   -0.83143
H     -1.46892    2.41291    1.77489
H     -2.38146   -0.10755    1.51624
H     -0.53406   -0.24483    2.26293
H     -1.31394   -0.42042   -0.94237
H     -1.05308   -2.03375    0.16701
H      1.27244   -1.31181    0.47326
H      1.04524   -0.89218   -1.44468
H      1.75058    1.48159   -0.91607
H      1.59707    1.14665    1.03434
