16

C      0.49075    1.76406   -0.61401
C     -0.98952    1.49465   -0.39114
C     -1.69105    0.23937    0.10456
C     -0.23157   -1.52157    0.33483
C      1.11464   -0.88358    0.64206
C      1.55927    0.73030   -0.93519
H      0.79950    2.80771   -0.64019
H     -1.65124    2.33996   -0.57223
H     -2.28133   -0.19402   -0.70108
H     -1.82792    0.28779    1.18356
H     -0.65134   -1.98700    1.22506
H     -0.35146   -1.75515   -0.72177
H      1.04988   -0.13684    1.43168
H      1.93138   -1.51625    0.29856
H      2.51760    0.98572   -0.48609
H      1.29141    0.16514   -1.82635
