16

C      0.09985    1.47050   -0.03325
C     -1.34601    1.21876    0.36619
C     -1.99882   -0.15491    0.34610
C     -0.28460   -1.20557    1.46037
C      1.08952   -0.93770    0.86560
C      0.89384    0.51289   -0.90853
H      0.57356    2.38176    0.32788
H     -1.93175    2.07226    0.70333
H     -2.71619   -0.28843    1.15412
H     -1.95259   -0.60747   -0.64303
H     -0.47293   -0.61387    2.35466
H     -0.69186   -2.16755    1.15366
H      1.67492   -0.24910    1.47263
H      1.41394   -1.71716    0.17819
H      1.96375    0.71415   -0.91888
H      0.26400    0.03951   -1.65989
