16

C     -0.26327    2.02395   -0.92824
C     -1.42414    1.47658   -0.11204
C     -1.88017    0.08026   -0.50686
C      0.15852   -0.96700   -0.33071
C      1.49595   -0.34594    0.04251
C      1.11128    1.89725   -0.28941
H     -0.46599    2.57885   -1.84267
H     -1.95848    2.11767    0.58704
H     -2.36353   -0.42394    0.32829
H     -2.06762    0.03455   -1.57835
H     -0.22328   -1.54541    0.50894
H      0.08557   -1.09903   -1.40894
H      2.25421   -0.50527   -0.72235
H      1.63312   -0.20266    1.11302
H      1.89470    1.95132   -1.04349
H      1.06411    2.19275    0.75739
