16

C      0.10378    1.67859   -0.29144
C     -1.00098    1.06463    0.55471
C     -1.97260    0.07743   -0.07372
C     -0.57933   -1.62064    0.60406
C      0.67344   -1.28832   -0.19210
C      0.94188    0.77158   -1.17941
H      0.25791    2.75606   -0.26891
H     -1.04571    1.35377    1.60333
H     -2.81983   -0.13779    0.57529
H     -1.86905   -0.01430   -1.15361
H     -0.52312   -1.33678    1.65364
H     -1.19684   -2.38748    0.13933
H      1.52494   -1.16506    0.47505
H      0.60843   -1.66001   -1.21335
H      1.99593    0.81641   -0.91055
H      0.44818    0.66423   -2.14381
