16
Coordinates from ORCA-job TS_vdwLSy_ll_ad_1-4_0-1_sp_orca
  O   2.55780995000000     -0.14672122000000      0.75935371000000
  O   0.89919442000000     -0.57981940000000      0.80912472000000
  C   0.56415259000000     -0.49835789000000     -0.57710511000000
  C   -0.75835099000000     -1.23541173000000     -0.42779413000000
  C   -1.08711245000000     -0.33396465000000      0.72606242000000
  C   -0.94655689000000      1.08792805000000      0.27271600000000
  C   0.16370078000000      0.95871072000000     -0.80055555000000
  H   2.67160592000000     -0.24396511000000      1.71489961000000
  H   1.36161265000000     -0.90500948000000     -1.21401523000000
  H   -0.62002221000000     -2.28614531000000     -0.14281427000000
  H   -1.45067759000000     -1.15999367000000     -1.28824082000000
  H   -1.60897595000000     -0.63585303000000      1.63780142000000
  H   -0.67071572000000      1.75385852000000      1.10350251000000
  H   -1.89698256000000      1.46910467000000     -0.14484234000000
  H   1.02142151000000      1.61500724000000     -0.60444923000000
  H   -0.19983343000000      1.14082232000000     -1.82365369000000
