16

O      2.19949   -1.19133    1.74532
O      0.89919   -0.57982    0.80912
C      0.56415   -0.49836   -0.57711
C     -0.75835   -1.23541   -0.42779
C     -1.08711   -0.33396    0.72606
C     -0.94656    1.08793    0.27272
C      0.16370    0.95871   -0.80056
H      3.15899   -1.48294    1.84145
H      1.36161   -0.90501   -1.21402
H     -0.56698   -2.23954   -0.05286
H     -1.43037   -1.05977   -1.26624
H     -1.60898   -0.63585    1.63780
H     -0.55180    1.64282    1.12226
H     -1.88664    1.34618   -0.21207
H      1.02037    1.56034   -0.50117
H     -0.26706    1.04288   -1.79696
