16

O      2.45282   -0.25188    1.45709
O      0.89919   -0.57982    0.80912
C      0.56415   -0.49836   -0.57711
C     -0.75835   -1.23541   -0.42779
C     -1.08711   -0.33396    0.72606
C     -0.94656    1.08793    0.27272
C      0.16370    0.95871   -0.80056
H      3.17279    0.03368    2.10131
H      1.36161   -0.90501   -1.21402
H     -1.43703   -1.06356   -1.26164
H     -0.56414   -2.24087   -0.05793
H     -1.60898   -0.63585    1.63780
H     -1.88598    1.35841   -0.20665
H     -0.56277    1.64369    1.12671
H     -0.25858    1.03869   -1.80093
H      1.01635    1.57077   -0.51098
