16

O      1.39883   -1.79531    1.91099
O      0.89919   -0.57982    0.80912
C      0.56415   -0.49836   -0.57711
C     -0.75835   -1.23541   -0.42779
C     -1.08711   -0.33396    0.72606
C     -0.94656    1.08793    0.27272
C      0.16370    0.95871   -0.80056
H      1.49995   -2.74767    2.22356
H      1.36161   -0.90501   -1.21402
H     -0.57670   -2.24755   -0.06997
H     -1.43444   -1.05380   -1.26169
H     -1.60898   -0.63585    1.63780
H     -0.56116    1.64274    1.12661
H     -1.88552    1.35863   -0.20742
H      1.01951    1.56272   -0.50349
H     -0.25703    1.04366   -1.80117
