16

O      2.50705   -0.94889    1.27789
O      0.89919   -0.57982    0.80912
C      0.56415   -0.49836   -0.57711
C     -0.75835   -1.23541   -0.42779
C     -1.08711   -0.33396    0.72606
C     -0.94656    1.08793    0.27272
C      0.16370    0.95871   -0.80056
H      3.46557   -1.23875    1.38805
H      1.36161   -0.90501   -1.21402
H     -0.58266   -2.23855   -0.04266
H     -1.41231   -1.06912   -1.28227
H     -1.60898   -0.63585    1.63780
H     -1.88910    1.35737   -0.20109
H     -0.55363    1.64227    1.12348
H      1.02154    1.56229   -0.50852
H     -0.26704    1.04419   -1.79686
