16

O      2.11774   -1.69459    1.27130
O      0.89919   -0.57982    0.80912
C      0.56415   -0.49836   -0.57711
C     -0.75835   -1.23541   -0.42779
C     -1.08711   -0.33396    0.72606
C     -0.94656    1.08793    0.27272
C      0.16370    0.95871   -0.80056
H      2.67844   -2.49998    1.04352
H      1.36161   -0.90501   -1.21402
H     -0.57324   -2.24314   -0.05945
H     -1.43382   -1.05920   -1.26334
H     -1.60898   -0.63585    1.63780
H     -0.55866    1.64141    1.12633
H     -1.88474    1.35758   -0.20954
H     -0.26002    1.03997   -1.80022
H      1.01822    1.56324   -0.50087
