16

O      2.48309   -0.79093    1.43191
O      0.89919   -0.57982    0.80912
C      0.56415   -0.49836   -0.57711
C     -0.75835   -1.23541   -0.42779
C     -1.08711   -0.33396    0.72606
C     -0.94656    1.08793    0.27272
C      0.16370    0.95871   -0.80056
H      3.43094   -0.53202    1.20949
H      1.36161   -0.90501   -1.21402
H     -1.46560   -1.05261   -1.23514
H     -0.54101   -2.24132   -0.07230
H     -1.60898   -0.63585    1.63780
H     -0.55902    1.64004    1.12739
H     -1.88390    1.36153   -0.20895
H      1.01540    1.57004   -0.50670
H     -0.26015    1.03096   -1.80085
