16

O      1.83888    0.11857    2.06229
O      0.89919   -0.57982    0.80912
C      0.56415   -0.49836   -0.57711
C     -0.75835   -1.23541   -0.42779
C     -1.08711   -0.33396    0.72606
C     -0.94656    1.08793    0.27272
C      0.16370    0.95871   -0.80056
H      2.46206    0.84446    2.37795
H      1.36161   -0.90501   -1.21402
H     -1.43699   -1.06474   -1.26192
H     -0.56435   -2.24104   -0.05826
H     -1.60898   -0.63585    1.63780
H     -0.56905    1.65042    1.12510
H     -1.88570    1.35303   -0.21020
H      1.01726    1.56999   -0.51202
H     -0.25783    1.03909   -1.80121
