16

O      1.55774   -0.03959    2.29763
O      0.89919   -0.57982    0.80912
C      0.56415   -0.49836   -0.57711
C     -0.75835   -1.23541   -0.42779
C     -1.08711   -0.33396    0.72606
C     -0.94656    1.08793    0.27272
C      0.16370    0.95871   -0.80056
H      2.16811    0.41013    2.96104
H      1.36161   -0.90501   -1.21402
H     -0.54268   -2.24033   -0.06849
H     -1.46377   -1.06561   -1.23958
H     -1.60898   -0.63585    1.63780
H     -0.55216    1.64218    1.12285
H     -1.88725    1.36447   -0.20067
H      1.01565    1.57849   -0.52574
H     -0.27454    1.01676   -1.79556
