16

O      2.31298    0.13821    1.46244
O      0.89919   -0.57982    0.80912
C      0.56415   -0.49836   -0.57711
C     -0.75835   -1.23541   -0.42779
C     -1.08711   -0.33396    0.72606
C     -0.94656    1.08793    0.27272
C      0.16370    0.95871   -0.80056
H      3.05106    0.82387    1.45774
H      1.36161   -0.90501   -1.21402
H     -1.43759   -1.06246   -1.26096
H     -0.56190   -2.23988   -0.05642
H     -1.60898   -0.63585    1.63780
H     -0.56270    1.64475    1.12599
H     -1.88608    1.35788   -0.20675
H      1.01094    1.58137   -0.51781
H     -0.26599    1.02745   -1.79861
