16

O      2.43994   -0.25526    1.48878
O      0.89919   -0.57982    0.80912
C      0.56415   -0.49836   -0.57711
C     -0.75835   -1.23541   -0.42779
C     -1.08711   -0.33396    0.72606
C     -0.94656    1.08793    0.27272
C      0.16370    0.95871   -0.80056
H      3.27044   -0.30019    2.05726
H      1.36161   -0.90501   -1.21402
H     -0.56298   -2.24013   -0.05652
H     -1.43626   -1.06073   -1.26168
H     -1.60898   -0.63585    1.63780
H     -0.55911    1.64229    1.12597
H     -1.88501    1.35637   -0.20970
H     -0.26309    1.03526   -1.79928
H      1.01579    1.56872   -0.50506
