16

O      2.33490   -0.19887    1.66632
O      0.89919   -0.57982    0.80912
C      0.56415   -0.49836   -0.57711
C     -0.75835   -1.23541   -0.42779
C     -1.08711   -0.33396    0.72606
C     -0.94656    1.08793    0.27272
C      0.16370    0.95871   -0.80056
H      3.30579    0.03167    1.52792
H      1.36161   -0.90501   -1.21402
H     -0.55939   -2.23763   -0.05172
H     -1.43433   -1.05442   -1.26190
H     -1.60898   -0.63585    1.63780
H     -0.55982    1.64253    1.12613
H     -1.88464    1.35443   -0.21148
H      1.01564    1.56849   -0.50420
H     -0.26316    1.03512   -1.79926
