16

O      1.66501    0.15534    2.15606
O      0.89919   -0.57982    0.80912
C      0.56415   -0.49836   -0.57711
C     -0.75835   -1.23541   -0.42779
C     -1.08711   -0.33396    0.72606
C     -0.94656    1.08793    0.27272
C      0.16370    0.95871   -0.80056
H      1.64747    0.75725    2.96371
H      1.36161   -0.90501   -1.21402
H     -0.56423   -2.24090   -0.05797
H     -1.43637   -1.06435   -1.26234
H     -1.60898   -0.63585    1.63780
H     -0.57466    1.65796    1.12255
H     -1.88531    1.34823   -0.21355
H      1.01744    1.56782   -0.50801
H     -0.25704    1.03930   -1.80153
