16

O      1.92376   -1.85735    1.31838
O      0.89919   -0.57982    0.80912
C      0.56415   -0.49836   -0.57711
C     -0.75835   -1.23541   -0.42779
C     -1.08711   -0.33396    0.72606
C     -0.94656    1.08793    0.27272
C      0.16370    0.95871   -0.80056
H      2.38082   -2.73357    1.12282
H      1.36161   -0.90501   -1.21402
H     -1.43192   -1.05331   -1.26362
H     -0.57777   -2.24399   -0.05953
H     -1.60898   -0.63585    1.63780
H     -0.56353    1.64343    1.12723
H     -1.88620    1.35977   -0.20544
H      1.01990    1.56367   -0.50659
H     -0.25518    1.04446   -1.80188
