16

O      1.72787    0.07887    2.15842
O      0.89919   -0.57982    0.80912
C      0.56415   -0.49836   -0.57711
C     -0.75835   -1.23541   -0.42779
C     -1.08711   -0.33396    0.72606
C     -0.94656    1.08793    0.27272
C      0.16370    0.95871   -0.80056
H      2.49717    0.49743    2.65630
H      1.36161   -0.90501   -1.21402
H     -0.56256   -2.23995   -0.05626
H     -1.43582   -1.06071   -1.26204
H     -1.60898   -0.63585    1.63780
H     -0.56596    1.65008    1.12395
H     -1.88465    1.35057   -0.21356
H      1.01708    1.56603   -0.50329
H     -0.26183    1.03646   -1.79973
