16

O      1.89397    0.19417    1.97210
O      0.89919   -0.57982    0.80912
C      0.56415   -0.49836   -0.57711
C     -0.75835   -1.23541   -0.42779
C     -1.08711   -0.33396    0.72606
C     -0.94656    1.08793    0.27272
C      0.16370    0.95871   -0.80056
H      2.42647    0.79762    2.57808
H      1.36161   -0.90501   -1.21402
H     -0.56405   -2.24219   -0.06157
H     -1.43895   -1.06029   -1.25940
H     -1.60898   -0.63585    1.63780
H     -0.56905    1.65128    1.12453
H     -1.88650    1.35350   -0.20837
H      1.01798    1.56912   -0.51232
H     -0.25907    1.04034   -1.80059
