16

O      1.79100   -0.69453    2.26950
O      0.89919   -0.57982    0.80912
C      0.56415   -0.49836   -0.57711
C     -0.75835   -1.23541   -0.42779
C     -1.08711   -0.33396    0.72606
C     -0.94656    1.08793    0.27272
C      0.16370    0.95871   -0.80056
H      1.85947   -0.27728    3.18390
H      1.36161   -0.90501   -1.21402
H     -0.56848   -2.24339   -0.06256
H     -1.43688   -1.06730   -1.26253
H     -1.60898   -0.63585    1.63780
H     -1.88551    1.35802   -0.20778
H     -0.56323    1.64537    1.12582
H      1.01885    1.56422   -0.50467
H     -0.25713    1.04253   -1.80123
