16

O      2.23408    0.07642    1.66271
O      0.89919   -0.57982    0.80912
C      0.56415   -0.49836   -0.57711
C     -0.75835   -1.23541   -0.42779
C     -1.08711   -0.33396    0.72606
C     -0.94656    1.08793    0.27272
C      0.16370    0.95871   -0.80056
H      3.00976    0.51781    2.13005
H      1.36161   -0.90501   -1.21402
H     -1.43676   -1.06240   -1.26162
H     -0.56303   -2.24017   -0.05661
H     -1.60898   -0.63585    1.63780
H     -1.88617    1.35693   -0.20711
H     -0.56260    1.64486    1.12588
H     -0.26157    1.03597   -1.79988
H      1.01581    1.57305   -0.51427
