16

O      2.41072   -0.20798    1.52899
O      0.89919   -0.57982    0.80912
C      0.56415   -0.49836   -0.57711
C     -0.75835   -1.23541   -0.42779
C     -1.08711   -0.33396    0.72606
C     -0.94656    1.08793    0.27272
C      0.16370    0.95871   -0.80056
H      3.22181    0.19876    1.96670
H      1.36161   -0.90501   -1.21402
H     -0.56658   -2.24072   -0.05625
H     -1.43645   -1.06489   -1.26239
H     -1.60898   -0.63585    1.63780
H     -0.55720    1.64446    1.12368
H     -1.88699    1.36451   -0.20115
H      1.01711    1.57150   -0.51480
H     -0.26387    1.03978   -1.79859
