16

O      1.74630   -1.96805    1.35355
O      0.89919   -0.57982    0.80912
C      0.56415   -0.49836   -0.57711
C     -0.75835   -1.23541   -0.42779
C     -1.08711   -0.33396    0.72606
C     -0.94656    1.08793    0.27272
C      0.16370    0.95871   -0.80056
H      2.00609   -2.93068    1.20949
H      1.36161   -0.90501   -1.21402
H     -1.42869   -1.04876   -1.26521
H     -0.58958   -2.24759   -0.06382
H     -1.60898   -0.63585    1.63780
H     -1.88499    1.35740   -0.20916
H     -0.55910    1.64166    1.12638
H      1.01907    1.56157   -0.49993
H     -0.25921    1.04269   -1.80033
