16

O      2.13465    0.22292    1.68687
O      0.89919   -0.57982    0.80912
C      0.56415   -0.49836   -0.57711
C     -0.75835   -1.23541   -0.42779
C     -1.08711   -0.33396    0.72606
C     -0.94656    1.08793    0.27272
C      0.16370    0.95871   -0.80056
H      2.95439    0.80713    1.64653
H      1.36161   -0.90501   -1.21402
H     -0.56225   -2.23927   -0.05460
H     -1.43590   -1.06158   -1.26215
H     -1.60898   -0.63585    1.63780
H     -0.56114    1.64530    1.12493
H     -1.88545    1.35427   -0.20999
H     -0.26789    1.02820   -1.79774
H      1.01241    1.57833   -0.51555
