16

O      2.33939   -0.00472    1.54143
O      0.89919   -0.57982    0.80912
C      0.56415   -0.49836   -0.57711
C     -0.75835   -1.23541   -0.42779
C     -1.08711   -0.33396    0.72606
C     -0.94656    1.08793    0.27272
C      0.16370    0.95871   -0.80056
H      2.70132    0.82952    1.97498
H      1.36161   -0.90501   -1.21402
H     -1.43354   -1.06626   -1.26503
H     -0.56750   -2.24067   -0.05563
H     -1.60898   -0.63585    1.63780
H     -0.56365    1.64540    1.12599
H     -1.88621    1.35655   -0.20724
H      1.01449    1.57580   -0.51624
H     -0.26125    1.03560   -1.80004
