16

O      1.72061   -1.81426    1.67087
O      0.89919   -0.57982    0.80912
C      0.56415   -0.49836   -0.57711
C     -0.75835   -1.23541   -0.42779
C     -1.08711   -0.33396    0.72606
C     -0.94656    1.08793    0.27272
C      0.16370    0.95871   -0.80056
H      2.35268   -2.59463    1.75099
H      1.36161   -0.90501   -1.21402
H     -0.57418   -2.24465   -0.06312
H     -1.43396   -1.05567   -1.26248
H     -1.60898   -0.63585    1.63780
H     -0.56080    1.64253    1.12658
H     -1.88551    1.35839   -0.20759
H      1.01938    1.56266   -0.50300
H     -0.25810    1.04247   -1.80082
