16

O      2.45342   -0.31031    1.48210
O      0.89919   -0.57982    0.80912
C      0.56415   -0.49836   -0.57711
C     -0.75835   -1.23541   -0.42779
C     -1.08711   -0.33396    0.72606
C     -0.94656    1.08793    0.27272
C      0.16370    0.95871   -0.80056
H      3.04869    0.32722    1.98621
H      1.36161   -0.90501   -1.21402
H     -0.56195   -2.23984   -0.05629
H     -1.43669   -1.05983   -1.26114
H     -1.60898   -0.63585    1.63780
H     -1.88495    1.35609   -0.20995
H     -0.55820    1.64207    1.12570
H      1.01573    1.56864   -0.50475
H     -0.26438    1.03458   -1.79878
