16

O      2.57454   -0.51261    1.16948
O      0.89919   -0.57982    0.80912
C      0.56415   -0.49836   -0.57711
C     -0.75835   -1.23541   -0.42779
C     -1.08711   -0.33396    0.72606
C     -0.94656    1.08793    0.27272
C      0.16370    0.95871   -0.80056
H      3.52515   -0.57247    0.84133
H      1.36161   -0.90501   -1.21402
H     -1.43628   -1.06071   -1.26166
H     -0.56331   -2.24020   -0.05654
H     -1.60898   -0.63585    1.63780
H     -0.55957    1.64194    1.12640
H     -1.88513    1.35703   -0.20909
H      1.01530    1.56938   -0.50502
H     -0.26176    1.03636   -1.79977
