16

O      2.15504    0.18208    1.69429
O      0.89919   -0.57982    0.80912
C      0.56415   -0.49836   -0.57711
C     -0.75835   -1.23541   -0.42779
C     -1.08711   -0.33396    0.72606
C     -0.94656    1.08793    0.27272
C      0.16370    0.95871   -0.80056
H      2.81355    0.93162    1.83385
H      1.36161   -0.90501   -1.21402
H     -0.56205   -2.23988   -0.05634
H     -1.43731   -1.06221   -1.26113
H     -1.60898   -0.63585    1.63780
H     -0.56219    1.64552    1.12526
H     -1.88538    1.35460   -0.20994
H     -0.26595    1.03002   -1.79844
H      1.01331    1.57677   -0.51485
