16

O      2.30118   -0.41656    1.78327
O      0.89919   -0.57982    0.80912
C      0.56415   -0.49836   -0.57711
C     -0.75835   -1.23541   -0.42779
C     -1.08711   -0.33396    0.72606
C     -0.94656    1.08793    0.27272
C      0.16370    0.95871   -0.80056
H      2.83641   -0.76929    2.56046
H      1.36161   -0.90501   -1.21402
H     -0.57057   -2.24367   -0.06226
H     -1.43236   -1.05421   -1.26346
H     -1.60898   -0.63585    1.63780
H     -0.53507    1.63476    1.11955
H     -1.89676    1.37011   -0.17779
H      1.03444    1.55152   -0.52511
H     -0.28017    1.06067   -1.78952
