16
Coordinates from ORCA-job TS_vdwLSy_ll_ad_1-4_0-1_conf164_opt_orca
  O   2.31352843099807     -1.16229895369639      0.80776753178424
  O   0.59978079683629     -1.18374615459751      0.74722220320266
  C   0.38112372154423     -0.83066317428240     -0.61972471098575
  C   -1.08364734372150     -1.24203685494432     -0.62013637245787
  C   -1.26510891825627     -0.45925113269916      0.64696082069815
  C   -0.76825773058297      0.93636543587841      0.41812933980892
  C   0.34586177154139      0.69626217603750     -0.63196089373636
  H   2.34049777551669     -1.41530706634942      1.74077036508464
  H   1.10001433908471     -1.32306160456716     -1.28855811174583
  H   -1.21351284353719     -2.32428248225429     -0.49422349665978
  H   -1.68248755972854     -0.88140737504750     -1.47809502039770
  H   -1.90027704331653     -0.75181594091627      1.48669339621045
  H   -0.39611209490103      1.39134211052496      1.34773665627579
  H   -1.57461656598085      1.59086715834947      0.03877710714361
  H   1.31858085249795      1.09627029224277     -0.31836349620138
  H   0.09697240200553      1.09981354632132     -1.62545530802378
