16

O      2.17949    0.26217    1.57924
O      0.89919   -0.57982    0.80912
C      0.56415   -0.49836   -0.57711
C     -0.75835   -1.23541   -0.42779
C     -1.08711   -0.33396    0.72606
C     -0.94656    1.08793    0.27272
C      0.16370    0.95871   -0.80056
H      2.82452    1.03214    1.65661
H      1.36161   -0.90501   -1.21402
H     -0.56083   -2.23934   -0.05554
H     -1.43798   -1.06189   -1.26053
H     -1.60898   -0.63585    1.63780
H     -0.56013    1.64473    1.12484
H     -1.88532    1.35410   -0.21035
H      1.00999    1.58315   -0.51890
H     -0.27115    1.02286   -1.79668
