16

O      1.94543    0.32253    1.82516
O      0.89919   -0.57982    0.80912
C      0.56415   -0.49836   -0.57711
C     -0.75835   -1.23541   -0.42779
C     -1.08711   -0.33396    0.72606
C     -0.94656    1.08793    0.27272
C      0.16370    0.95871   -0.80056
H      2.37998    1.17706    2.13476
H      1.36161   -0.90501   -1.21402
H     -1.43724   -1.06275   -1.26131
H     -0.56197   -2.23981   -0.05620
H     -1.60898   -0.63585    1.63780
H     -0.56844    1.65116    1.12434
H     -1.88513    1.35062   -0.21262
H      1.01397    1.57663   -0.51650
H     -0.26593    1.02935   -1.79851
