16

O      1.79101   -1.45765    1.98183
O      0.89919   -0.57982    0.80912
C      0.56415   -0.49836   -0.57711
C     -0.75835   -1.23541   -0.42779
C     -1.08711   -0.33396    0.72606
C     -0.94656    1.08793    0.27272
C      0.16370    0.95871   -0.80056
H      2.74551   -1.70736    2.18551
H      1.36161   -0.90501   -1.21402
H     -0.56174   -2.24044   -0.05802
H     -1.43712   -1.05369   -1.25948
H     -1.60898   -0.63585    1.63780
H     -0.55661    1.64116    1.12557
H     -1.88569    1.35854   -0.20714
H      1.01949    1.56217   -0.50234
H     -0.26382    1.03822   -1.79874
