16

O      1.97935   -1.08670    2.04099
O      0.89919   -0.57982    0.80912
C      0.56415   -0.49836   -0.57711
C     -0.75835   -1.23541   -0.42779
C     -1.08711   -0.33396    0.72606
C     -0.94656    1.08793    0.27272
C      0.16370    0.95871   -0.80056
H      2.12014   -1.13355    3.03744
H      1.36161   -0.90501   -1.21402
H     -0.56551   -2.24290   -0.06274
H     -1.43757   -1.06664   -1.26185
H     -1.60898   -0.63585    1.63780
H     -1.88531    1.35844   -0.20795
H     -0.56082    1.64307    1.12623
H      1.01929    1.56313   -0.50370
H     -0.25881    1.04270   -1.80050
