16

O      1.80642    0.35820    1.92189
O      0.89919   -0.57982    0.80912
C      0.56415   -0.49836   -0.57711
C     -0.75835   -1.23541   -0.42779
C     -1.08711   -0.33396    0.72606
C     -0.94656    1.08793    0.27272
C      0.16370    0.95871   -0.80056
H      2.10796    1.23237    2.32166
H      1.36161   -0.90501   -1.21402
H     -0.56199   -2.23976   -0.05605
H     -1.43681   -1.06284   -1.26167
H     -1.60898   -0.63585    1.63780
H     -0.57507    1.65713    1.12328
H     -1.88468    1.34589   -0.21601
H      1.01473    1.57437   -0.51388
H     -0.26405    1.03098   -1.79919
