16

O      1.97909   -0.61462    2.14096
O      0.89919   -0.57982    0.80912
C      0.56415   -0.49836   -0.57711
C     -0.75835   -1.23541   -0.42779
C     -1.08711   -0.33396    0.72606
C     -0.94656    1.08793    0.27272
C      0.16370    0.95871   -0.80056
H      2.85714   -0.99536    2.45559
H      1.36161   -0.90501   -1.21402
H     -0.57056   -2.24021   -0.05286
H     -1.42755   -1.06176   -1.26890
H     -1.60898   -0.63585    1.63780
H     -0.56169    1.64496    1.12540
H     -1.88578    1.35451   -0.20922
H      1.01919    1.56273   -0.50260
H     -0.25922    1.04209   -1.80038
