16

O      2.50898   -0.18325    1.24786
O      0.89919   -0.57982    0.80912
C      0.56415   -0.49836   -0.57711
C     -0.75835   -1.23541   -0.42779
C     -1.08711   -0.33396    0.72606
C     -0.94656    1.08793    0.27272
C      0.16370    0.95871   -0.80056
H      3.38929    0.25522    1.02941
H      1.36161   -0.90501   -1.21402
H     -0.56309   -2.24034   -0.05702
H     -1.43727   -1.06263   -1.26125
H     -1.60898   -0.63585    1.63780
H     -1.88547    1.35760   -0.20811
H     -0.56083    1.64239    1.12668
H      1.01184    1.57723   -0.51149
H     -0.26222    1.03295   -1.79983
