16

O      2.31557   -0.12169    1.66069
O      0.89919   -0.57982    0.80912
C      0.56415   -0.49836   -0.57711
C     -0.75835   -1.23541   -0.42779
C     -1.08711   -0.33396    0.72606
C     -0.94656    1.08793    0.27272
C      0.16370    0.95871   -0.80056
H      3.18029    0.14722    2.10211
H      1.36161   -0.90501   -1.21402
H     -0.57113   -2.24167   -0.05649
H     -1.43001   -1.05495   -1.26550
H     -1.60898   -0.63585    1.63780
H     -1.88225    1.36056   -0.21269
H     -0.56085    1.63376    1.13223
H      1.01532    1.56560   -0.49741
H     -0.25824    1.04380   -1.80065
