16

O      1.91055    0.04202    2.04672
O      0.89919   -0.57982    0.80912
C      0.56415   -0.49836   -0.57711
C     -0.75835   -1.23541   -0.42779
C     -1.08711   -0.33396    0.72606
C     -0.94656    1.08793    0.27272
C      0.16370    0.95871   -0.80056
H      2.46133    0.51082    2.74799
H      1.36161   -0.90501   -1.21402
H     -0.56505   -2.23988   -0.05478
H     -1.43345   -1.06186   -1.26420
H     -1.60898   -0.63585    1.63780
H     -0.56555    1.64741    1.12553
H     -1.88387    1.35507   -0.21262
H      1.01965    1.56192   -0.50230
H     -0.25749    1.04191   -1.80112
