16

O      1.64192   -1.73056    1.84127
O      0.89919   -0.57982    0.80912
C      0.56415   -0.49836   -0.57711
C     -0.75835   -1.23541   -0.42779
C     -1.08711   -0.33396    0.72606
C     -0.94656    1.08793    0.27272
C      0.16370    0.95871   -0.80056
H      2.47736   -2.27694    1.97698
H      1.36161   -0.90501   -1.21402
H     -0.57027   -2.24361   -0.06223
H     -1.43466   -1.05485   -1.26173
H     -1.60898   -0.63585    1.63780
H     -1.88489    1.35691   -0.20962
H     -0.55903    1.64186    1.12621
H      1.01883    1.56220   -0.50050
H     -0.26007    1.04070   -1.80014
