16

O      2.37948    0.01456    1.43890
O      0.89919   -0.57982    0.80912
C      0.56415   -0.49836   -0.57711
C     -0.75835   -1.23541   -0.42779
C     -1.08711   -0.33396    0.72606
C     -0.94656    1.08793    0.27272
C      0.16370    0.95871   -0.80056
H      3.32956    0.31690    1.29451
H      1.36161   -0.90501   -1.21402
H     -0.55758   -2.23713   -0.05135
H     -1.43594   -1.05485   -1.26068
H     -1.60898   -0.63585    1.63780
H     -0.56254    1.64366    1.12663
H     -1.88614    1.35767   -0.20676
H      1.01308    1.57768   -0.51611
H     -0.26176    1.03317   -1.80001
