16

O      1.30146   -1.43636    2.23940
O      0.89919   -0.57982    0.80912
C      0.56415   -0.49836   -0.57711
C     -0.75835   -1.23541   -0.42779
C     -1.08711   -0.33396    0.72606
C     -0.94656    1.08793    0.27272
C      0.16370    0.95871   -0.80056
H      1.64646   -2.07582    2.93724
H      1.36161   -0.90501   -1.21402
H     -1.43475   -1.05388   -1.26144
H     -0.56511   -2.24186   -0.06013
H     -1.60898   -0.63585    1.63780
H     -0.55930    1.64255    1.12588
H     -1.88499    1.35642   -0.20971
H     -0.26063    1.04014   -1.79994
H      1.01899    1.56187   -0.50032
