16

O      2.26110   -1.52523    1.24795
O      0.89919   -0.57982    0.80912
C      0.56415   -0.49836   -0.57711
C     -0.75835   -1.23541   -0.42779
C     -1.08711   -0.33396    0.72606
C     -0.94656    1.08793    0.27272
C      0.16370    0.95871   -0.80056
H      3.08895   -2.03044    0.97528
H      1.36161   -0.90501   -1.21402
H     -0.57074   -2.24298   -0.06027
H     -1.43518   -1.06207   -1.26284
H     -1.60898   -0.63585    1.63780
H     -0.55891    1.64214    1.12597
H     -1.88496    1.35747   -0.20918
H      1.01835    1.56227   -0.49929
H     -0.26176    1.03916   -1.79954
