16

O      2.44774   -0.19117    1.43532
O      0.89919   -0.57982    0.80912
C      0.56415   -0.49836   -0.57711
C     -0.75835   -1.23541   -0.42779
C     -1.08711   -0.33396    0.72606
C     -0.94656    1.08793    0.27272
C      0.16370    0.95871   -0.80056
H      3.19377    0.41435    1.73816
H      1.36161   -0.90501   -1.21402
H     -0.56324   -2.24035   -0.05699
H     -1.43676   -1.06210   -1.26157
H     -1.60898   -0.63585    1.63780
H     -0.56089    1.64300    1.12631
H     -1.88541    1.35704   -0.20853
H      1.01487    1.57199   -0.50920
H     -0.26174    1.03544   -1.79985
