16

O      2.16017   -0.03299    1.83483
O      0.89919   -0.57982    0.80912
C      0.56415   -0.49836   -0.57711
C     -0.75835   -1.23541   -0.42779
C     -1.08711   -0.33396    0.72606
C     -0.94656    1.08793    0.27272
C      0.16370    0.95871   -0.80056
H      3.13530    0.04729    2.07483
H      1.36161   -0.90501   -1.21402
H     -0.56478   -2.23902   -0.05260
H     -1.43062   -1.06565   -1.26725
H     -1.60898   -0.63585    1.63780
H     -1.88838    1.32923   -0.21740
H     -0.57609    1.66864    1.11592
H      1.01894    1.56337   -0.50318
H     -0.25822    1.04270   -1.80075
