16

O      2.48732   -0.63945    1.45369
O      0.89919   -0.57982    0.80912
C      0.56415   -0.49836   -0.57711
C     -0.75835   -1.23541   -0.42779
C     -1.08711   -0.33396    0.72606
C     -0.94656    1.08793    0.27272
C      0.16370    0.95871   -0.80056
H      3.45289   -0.59368    1.73740
H      1.36161   -0.90501   -1.21402
H     -0.55851   -2.24201   -0.06407
H     -1.44503   -1.06182   -1.25470
H     -1.60898   -0.63585    1.63780
H     -0.55909    1.64135    1.12657
H     -1.88514    1.35901   -0.20796
H      1.01709    1.56736   -0.50604
H     -0.26113    1.03658   -1.80001
