16

O      1.64383   -0.04409    2.25815
O      0.89919   -0.57982    0.80912
C      0.56415   -0.49836   -0.57711
C     -0.75835   -1.23541   -0.42779
C     -1.08711   -0.33396    0.72606
C     -0.94656    1.08793    0.27272
C      0.16370    0.95871   -0.80056
H      2.45101    0.17869    2.81828
H      1.36161   -0.90501   -1.21402
H     -1.43850   -1.06963   -1.26167
H     -0.56814   -2.24386   -0.06402
H     -1.60898   -0.63585    1.63780
H     -0.56207    1.64869    1.12312
H     -1.88388    1.35049   -0.21509
H      1.01676    1.56341   -0.49708
H     -0.26473    1.03527   -1.79857
