16

O      2.36809   -1.17505    1.46427
O      0.89919   -0.57982    0.80912
C      0.56415   -0.49836   -0.57711
C     -0.75835   -1.23541   -0.42779
C     -1.08711   -0.33396    0.72606
C     -0.94656    1.08793    0.27272
C      0.16370    0.95871   -0.80056
H      3.34880   -1.18873    1.23419
H      1.36161   -0.90501   -1.21402
H     -0.56039   -2.24111   -0.06058
H     -1.44142   -1.06193   -1.25772
H     -1.60898   -0.63585    1.63780
H     -1.88619    1.35406   -0.20868
H     -0.56080    1.64521    1.12483
H      1.01897    1.56379   -0.50415
H     -0.26067    1.03996   -1.79994
