16

O      2.05223   -0.66089    2.07605
O      0.89919   -0.57982    0.80912
C      0.56415   -0.49836   -0.57711
C     -0.75835   -1.23541   -0.42779
C     -1.08711   -0.33396    0.72606
C     -0.94656    1.08793    0.27272
C      0.16370    0.95871   -0.80056
H      2.09831   -0.57918    3.07910
H      1.36161   -0.90501   -1.21402
H     -1.43892   -1.05554   -1.25841
H     -0.55827   -2.23944   -0.05718
H     -1.60898   -0.63585    1.63780
H     -0.55884    1.64284    1.12549
H     -1.88539    1.35773   -0.20818
H     -0.26330    1.03711   -1.79905
H      1.01877    1.56316   -0.50228
