16

O      1.22689   -0.71751    2.48687
O      0.89919   -0.57982    0.80912
C      0.56415   -0.49836   -0.57711
C     -0.75835   -1.23541   -0.42779
C     -1.08711   -0.33396    0.72606
C     -0.94656    1.08793    0.27272
C      0.16370    0.95871   -0.80056
H      1.50417   -0.56240    3.44288
H      1.36161   -0.90501   -1.21402
H     -0.56255   -2.24028   -0.05717
H     -1.43532   -1.05739   -1.26174
H     -1.60898   -0.63585    1.63780
H     -0.55824    1.64478    1.12395
H     -1.88425    1.35232   -0.21339
H     -0.26373    1.03747   -1.79883
H      1.01819    1.56138   -0.49706
