16

O      1.58212    0.11758    2.21924
O      0.89919   -0.57982    0.80912
C      0.56415   -0.49836   -0.57711
C     -0.75835   -1.23541   -0.42779
C     -1.08711   -0.33396    0.72606
C     -0.94656    1.08793    0.27272
C      0.16370    0.95871   -0.80056
H      1.47898    0.62245    3.08491
H      1.36161   -0.90501   -1.21402
H     -0.56324   -2.24040   -0.05711
H     -1.43604   -1.06250   -1.26223
H     -1.60898   -0.63585    1.63780
H     -1.88512    1.34726   -0.21443
H     -0.57349    1.65868    1.12156
H      1.01759    1.56629   -0.50525
H     -0.25811    1.03874   -1.80113
