16

O      2.51449   -0.21284    1.25332
O      0.89919   -0.57982    0.80912
C      0.56415   -0.49836   -0.57711
C     -0.75835   -1.23541   -0.42779
C     -1.08711   -0.33396    0.72606
C     -0.94656    1.08793    0.27272
C      0.16370    0.95871   -0.80056
H      3.42449    0.15648    1.02881
H      1.36161   -0.90501   -1.21402
H     -0.56319   -2.24034   -0.05699
H     -1.43716   -1.06241   -1.26130
H     -1.60898   -0.63585    1.63780
H     -0.56102    1.64096    1.12770
H     -1.88588    1.35620   -0.20809
H      1.01368    1.57492   -0.51197
H     -0.26067    1.03333   -1.80046
