16

O      1.96904    0.29031    1.82868
O      0.89919   -0.57982    0.80912
C      0.56415   -0.49836   -0.57711
C     -0.75835   -1.23541   -0.42779
C     -1.08711   -0.33396    0.72606
C     -0.94656    1.08793    0.27272
C      0.16370    0.95871   -0.80056
H      2.27989    1.13913    2.27340
H      1.36161   -0.90501   -1.21402
H     -1.43704   -1.06266   -1.26145
H     -0.56216   -2.23992   -0.05638
H     -1.60898   -0.63585    1.63780
H     -0.56857    1.65100    1.12451
H     -1.88506    1.35094   -0.21257
H      1.01447    1.57512   -0.51474
H     -0.26487    1.03081   -1.79885
