16

O      1.93130   -1.06726    2.08910
O      0.89919   -0.57982    0.80912
C      0.56415   -0.49836   -0.57711
C     -0.75835   -1.23541   -0.42779
C     -1.08711   -0.33396    0.72606
C     -0.94656    1.08793    0.27272
C      0.16370    0.95871   -0.80056
H      2.72935   -0.73254    2.60483
H      1.36161   -0.90501   -1.21402
H     -1.40778   -1.06630   -1.28516
H     -0.58645   -2.23922   -0.04270
H     -1.60898   -0.63585    1.63780
H     -1.87920    1.34620   -0.22623
H     -0.58452    1.65128    1.13122
H      1.01288    1.56239   -0.48442
H     -0.23678    1.04986   -1.80890
