16

O      2.30291    0.12012    1.50255
O      0.89919   -0.57982    0.80912
C      0.56415   -0.49836   -0.57711
C     -0.75835   -1.23541   -0.42779
C     -1.08711   -0.33396    0.72606
C     -0.94656    1.08793    0.27272
C      0.16370    0.95871   -0.80056
H      3.16979    0.61627    1.37111
H      1.36161   -0.90501   -1.21402
H     -0.56107   -2.23937   -0.05549
H     -1.43721   -1.06052   -1.26087
H     -1.60898   -0.63585    1.63780
H     -0.55790    1.64271    1.12514
H     -1.88476    1.35475   -0.21107
H      1.01031    1.57870   -0.51016
H     -0.27047    1.02464   -1.79685
