16

O      2.01095   -0.41727    2.10479
O      0.89919   -0.57982    0.80912
C      0.56415   -0.49836   -0.57711
C     -0.75835   -1.23541   -0.42779
C     -1.08711   -0.33396    0.72606
C     -0.94656    1.08793    0.27272
C      0.16370    0.95871   -0.80056
H      3.00272   -0.39442    2.28020
H      1.36161   -0.90501   -1.21402
H     -0.54974   -2.23724   -0.05593
H     -1.44762   -1.07298   -1.25482
H     -1.60898   -0.63585    1.63780
H     -0.55097    1.64660    1.11940
H     -1.88482    1.35574   -0.21041
H      1.00271    1.58493   -0.50159
H     -0.25786    1.02296   -1.80236
