16

O      2.50801   -0.96040    1.26524
O      0.89919   -0.57982    0.80912
C      0.56415   -0.49836   -0.57711
C     -0.75835   -1.23541   -0.42779
C     -1.08711   -0.33396    0.72606
C     -0.94656    1.08793    0.27272
C      0.16370    0.95871   -0.80056
H      3.44865   -1.23712    1.03387
H      1.36161   -0.90501   -1.21402
H     -0.56353   -2.24001   -0.05593
H     -1.43522   -1.05799   -1.26195
H     -1.60898   -0.63585    1.63780
H     -0.55413    1.63980    1.12531
H     -1.88377    1.35371   -0.21355
H     -0.26601    1.03551   -1.79801
H      1.01663    1.56315   -0.49622
