16

O      2.53546   -0.87286    1.23094
O      0.89919   -0.57982    0.80912
C      0.56415   -0.49836   -0.57711
C     -0.75835   -1.23541   -0.42779
C     -1.08711   -0.33396    0.72606
C     -0.94656    1.08793    0.27272
C      0.16370    0.95871   -0.80056
H      3.48973   -1.04641    0.95860
H      1.36161   -0.90501   -1.21402
H     -0.56332   -2.24157   -0.06025
H     -1.43938   -1.06259   -1.25952
H     -1.60898   -0.63585    1.63780
H     -1.88503    1.35845   -0.20848
H     -0.56595    1.64362    1.12818
H     -0.25430    1.04019   -1.80260
H      1.01700    1.56739   -0.50582
