16

O      1.99394    0.12966    1.92238
O      0.89919   -0.57982    0.80912
C      0.56415   -0.49836   -0.57711
C     -0.75835   -1.23541   -0.42779
C     -1.08711   -0.33396    0.72606
C     -0.94656    1.08793    0.27272
C      0.16370    0.95871   -0.80056
H      2.58448    0.77349    2.42404
H      1.36161   -0.90501   -1.21402
H     -0.55429   -2.24166   -0.06544
H     -1.44726   -1.05975   -1.25241
H     -1.60898   -0.63585    1.63780
H     -0.58430    1.65396    1.12937
H     -1.87897    1.34498   -0.22728
H     -0.24440    1.03542   -1.80705
H      1.00928    1.57243   -0.49426
