16

O      2.38316   -0.44547    1.65822
O      0.89919   -0.57982    0.80912
C      0.56415   -0.49836   -0.57711
C     -0.75835   -1.23541   -0.42779
C     -1.08711   -0.33396    0.72606
C     -0.94656    1.08793    0.27272
C      0.16370    0.95871   -0.80056
H      3.29860   -0.80567    1.87533
H      1.36161   -0.90501   -1.21402
H     -0.56413   -2.24085   -0.05787
H     -1.43664   -1.06244   -1.26173
H     -1.60898   -0.63585    1.63780
H     -1.88544    1.35737   -0.20829
H     -0.56125    1.64310    1.12641
H      1.01760    1.56662   -0.50600
H     -0.25931    1.03948   -1.80056
