16

O      2.55149   -0.79793    1.21349
O      0.89919   -0.57982    0.80912
C      0.56415   -0.49836   -0.57711
C     -0.75835   -1.23541   -0.42779
C     -1.08711   -0.33396    0.72606
C     -0.94656    1.08793    0.27272
C      0.16370    0.95871   -0.80056
H      3.51664   -0.74620    0.92938
H      1.36161   -0.90501   -1.21402
H     -0.56585   -2.24151   -0.05876
H     -1.43636   -1.06309   -1.26209
H     -1.60898   -0.63585    1.63780
H     -0.55820    1.64173    1.12592
H     -1.88473    1.35661   -0.21009
H      1.01651    1.56572   -0.50099
H     -0.26265    1.03726   -1.79931
