16

O      2.17195   -0.13739    1.87003
O      0.89919   -0.57982    0.80912
C      0.56415   -0.49836   -0.57711
C     -0.75835   -1.23541   -0.42779
C     -1.08711   -0.33396    0.72606
C     -0.94656    1.08793    0.27272
C      0.16370    0.95871   -0.80056
H      3.04104    0.33438    2.06243
H      1.36161   -0.90501   -1.21402
H     -0.56442   -2.24125   -0.05880
H     -1.43740   -1.06441   -1.26152
H     -1.60898   -0.63585    1.63780
H     -1.88616    1.35797   -0.20654
H     -0.56453    1.64536    1.12641
H      1.01763    1.56935   -0.51176
H     -0.25732    1.04046   -1.80132
