16

O      1.74632    0.02482    2.17219
O      0.89919   -0.57982    0.80912
C      0.56415   -0.49836   -0.57711
C     -0.75835   -1.23541   -0.42779
C     -1.08711   -0.33396    0.72606
C     -0.94656    1.08793    0.27272
C      0.16370    0.95871   -0.80056
H      2.58123    0.40689    2.58675
H      1.36161   -0.90501   -1.21402
H     -0.56389   -2.24063   -0.05741
H     -1.43600   -1.06251   -1.26227
H     -1.60898   -0.63585    1.63780
H     -0.56605    1.64952    1.12436
H     -1.88504    1.35241   -0.21182
H      1.01749    1.56622   -0.50484
H     -0.26035    1.03804   -1.80023
