16

O      2.51777   -0.42837    1.35542
O      0.89919   -0.57982    0.80912
C      0.56415   -0.49836   -0.57711
C     -0.75835   -1.23541   -0.42779
C     -1.08711   -0.33396    0.72606
C     -0.94656    1.08793    0.27272
C      0.16370    0.95871   -0.80056
H      3.52096   -0.35718    1.29649
H      1.36161   -0.90501   -1.21402
H     -0.56455   -2.24073   -0.05731
H     -1.43617   -1.06225   -1.26207
H     -1.60898   -0.63585    1.63780
H     -0.55510    1.64142    1.12470
H     -1.88814    1.36017   -0.20139
H     -0.26524    1.04043   -1.79795
H      1.01963    1.56702   -0.51276
