16

O      2.24721   -0.22170    1.80701
O      0.89919   -0.57982    0.80912
C      0.56415   -0.49836   -0.57711
C     -0.75835   -1.23541   -0.42779
C     -1.08711   -0.33396    0.72606
C     -0.94656    1.08793    0.27272
C      0.16370    0.95871   -0.80056
H      3.04543   -0.15388    2.41788
H      1.36161   -0.90501   -1.21402
H     -0.58646   -2.23818   -0.04001
H     -1.40446   -1.06894   -1.28819
H     -1.60898   -0.63585    1.63780
H     -0.58376    1.65684    1.12723
H     -1.88420    1.34330   -0.21828
H      1.01762    1.56125   -0.49518
H     -0.24042    1.05737   -1.80675
