16

O      1.77411    0.30504    1.98926
O      0.89919   -0.57982    0.80912
C      0.56415   -0.49836   -0.57711
C     -0.75835   -1.23541   -0.42779
C     -1.08711   -0.33396    0.72606
C     -0.94656    1.08793    0.27272
C      0.16370    0.95871   -0.80056
H      1.82010    0.91552    2.78933
H      1.36161   -0.90501   -1.21402
H     -0.56168   -2.23955   -0.05566
H     -1.43588   -1.06089   -1.26202
H     -1.60898   -0.63585    1.63780
H     -0.57497    1.65742    1.12304
H     -1.88294    1.34320   -0.22076
H     -0.26134    1.03203   -1.80026
H      1.01393    1.57045   -0.50331
