16

O      1.72798   -1.99068    1.32270
O      0.89919   -0.57982    0.80912
C      0.56415   -0.49836   -0.57711
C     -0.75835   -1.23541   -0.42779
C     -1.08711   -0.33396    0.72606
C     -0.94656    1.08793    0.27272
C      0.16370    0.95871   -0.80056
H      1.99861   -2.93918    1.11772
H      1.36161   -0.90501   -1.21402
H     -0.59068   -2.24692   -0.06146
H     -1.42622   -1.04422   -1.26616
H     -1.60898   -0.63585    1.63780
H     -0.55801    1.64130    1.12611
H     -1.88469    1.35661   -0.21017
H      1.01893    1.56071   -0.49782
H     -0.26123    1.04120   -1.79960
