16

O      2.49528   -0.18011    1.29279
O      0.89919   -0.57982    0.80912
C      0.56415   -0.49836   -0.57711
C     -0.75835   -1.23541   -0.42779
C     -1.08711   -0.33396    0.72606
C     -0.94656    1.08793    0.27272
C      0.16370    0.95871   -0.80056
H      3.42364    0.14249    1.07147
H      1.36161   -0.90501   -1.21402
H     -0.56291   -2.24020   -0.05675
H     -1.43697   -1.06192   -1.26136
H     -1.60898   -0.63585    1.63780
H     -0.56018    1.64232    1.12643
H     -1.88532    1.35711   -0.20867
H     -0.26284    1.03328   -1.79954
H      1.01278    1.57505   -0.50959
