16

O      2.42409   -0.99164    1.47714
O      0.89919   -0.57982    0.80912
C      0.56415   -0.49836   -0.57711
C     -0.75835   -1.23541   -0.42779
C     -1.08711   -0.33396    0.72606
C     -0.94656    1.08793    0.27272
C      0.16370    0.95871   -0.80056
H      3.37308   -1.12844    1.78639
H      1.36161   -0.90501   -1.21402
H     -0.59725   -2.23778   -0.03439
H     -1.39414   -1.07064   -1.29616
H     -1.60898   -0.63585    1.63780
H     -0.56748    1.64739    1.12640
H     -1.88478    1.34932   -0.21398
H      1.01865    1.55937   -0.49438
H     -0.25353    1.05069   -1.80201
