16

O      1.21449   -0.63863    2.49385
O      0.89919   -0.57982    0.80912
C      0.56415   -0.49836   -0.57711
C     -0.75835   -1.23541   -0.42779
C     -1.08711   -0.33396    0.72606
C     -0.94656    1.08793    0.27272
C      0.16370    0.95871   -0.80056
H      1.20910   -0.05224    3.31301
H      1.36161   -0.90501   -1.21402
H     -0.56449   -2.24105   -0.05822
H     -1.43536   -1.06041   -1.26235
H     -1.60898   -0.63585    1.63780
H     -1.88453    1.34944   -0.21439
H     -0.55805    1.64631    1.12285
H     -0.26206    1.03983   -1.79936
H      1.01861    1.56252   -0.50052
