16

O      2.56324   -0.53170    1.22121
O      0.89919   -0.57982    0.80912
C      0.56415   -0.49836   -0.57711
C     -0.75835   -1.23541   -0.42779
C     -1.08711   -0.33396    0.72606
C     -0.94656    1.08793    0.27272
C      0.16370    0.95871   -0.80056
H      3.50049   -0.24357    0.98998
H      1.36161   -0.90501   -1.21402
H     -1.43782   -1.06935   -1.26217
H     -0.56853   -2.24318   -0.06195
H     -1.60898   -0.63585    1.63780
H     -1.88599    1.35912   -0.20623
H     -0.56279    1.64320    1.12705
H      1.01600    1.57092   -0.51029
H     -0.25694    1.04057   -1.80147
