16

O      2.52386   -0.30562    1.28498
O      0.89919   -0.57982    0.80912
C      0.56415   -0.49836   -0.57711
C     -0.75835   -1.23541   -0.42779
C     -1.08711   -0.33396    0.72606
C     -0.94656    1.08793    0.27272
C      0.16370    0.95871   -0.80056
H      3.49270   -0.13874    1.06493
H      1.36161   -0.90501   -1.21402
H     -0.56391   -2.24069   -0.05756
H     -1.43709   -1.06324   -1.26153
H     -1.60898   -0.63585    1.63780
H     -0.56260    1.64304    1.12706
H     -1.88597    1.35849   -0.20662
H      1.01497    1.57314   -0.51195
H     -0.25831    1.03815   -1.80109
