16

O      2.46997   -0.24247    1.40913
O      0.89919   -0.57982    0.80912
C      0.56415   -0.49836   -0.57711
C     -0.75835   -1.23541   -0.42779
C     -1.08711   -0.33396    0.72606
C     -0.94656    1.08793    0.27272
C      0.16370    0.95871   -0.80056
H      3.19624    0.39863    1.68560
H      1.36161   -0.90501   -1.21402
H     -0.56154   -2.23937   -0.05524
H     -1.43600   -1.05860   -1.26144
H     -1.60898   -0.63585    1.63780
H     -1.88414    1.35424   -0.21255
H     -0.55605    1.64108    1.12536
H     -0.26774    1.03086   -1.79761
H      1.01391    1.56958   -0.50147
