16

O      2.55073   -0.27501    1.15652
O      0.89919   -0.57982    0.80912
C      0.56415   -0.49836   -0.57711
C     -0.75835   -1.23541   -0.42779
C     -1.08711   -0.33396    0.72606
C     -0.94656    1.08793    0.27272
C      0.16370    0.95871   -0.80056
H      3.47359   -0.07375    0.80619
H      1.36161   -0.90501   -1.21402
H     -0.56427   -2.24095   -0.05806
H     -1.43756   -1.06436   -1.26138
H     -1.60898   -0.63585    1.63780
H     -0.56300    1.64295    1.12730
H     -1.88603    1.35897   -0.20624
H     -0.25862    1.03638   -1.80109
H      1.01289    1.57675   -0.51355
