16

O      2.52012   -0.21493    1.23413
O      0.89919   -0.57982    0.80912
C      0.56415   -0.49836   -0.57711
C     -0.75835   -1.23541   -0.42779
C     -1.08711   -0.33396    0.72606
C     -0.94656    1.08793    0.27272
C      0.16370    0.95871   -0.80056
H      3.44978    0.05728    0.95745
H      1.36161   -0.90501   -1.21402
H     -1.43747   -1.06408   -1.26139
H     -0.56410   -2.24088   -0.05796
H     -1.60898   -0.63585    1.63780
H     -0.56183    1.64275    1.12690
H     -1.88575    1.35826   -0.20717
H     -0.26032    1.03509   -1.80048
H      1.01279    1.57632   -0.51233
