16

O      1.24808   -0.73692    2.48088
O      0.89919   -0.57982    0.80912
C      0.56415   -0.49836   -0.57711
C     -0.75835   -1.23541   -0.42779
C     -1.08711   -0.33396    0.72606
C     -0.94656    1.08793    0.27272
C      0.16370    0.95871   -0.80056
H      1.41060   -0.25698    3.35160
H      1.36161   -0.90501   -1.21402
H     -0.56157   -2.23973   -0.05619
H     -1.43516   -1.05610   -1.26159
H     -1.60898   -0.63585    1.63780
H     -0.56002    1.64594    1.12400
H     -1.88464    1.35303   -0.21223
H      1.01851    1.56194   -0.49910
H     -0.26228    1.03841   -1.79938
