16

O      2.55183   -0.47252    1.25459
O      0.89919   -0.57982    0.80912
C      0.56415   -0.49836   -0.57711
C     -0.75835   -1.23541   -0.42779
C     -1.08711   -0.33396    0.72606
C     -0.94656    1.08793    0.27272
C      0.16370    0.95871   -0.80056
H      3.51962   -0.32318    1.01792
H      1.36161   -0.90501   -1.21402
H     -0.56595   -2.24062   -0.05629
H     -1.43767   -1.06265   -1.26093
H     -1.60898   -0.63585    1.63780
H     -0.55937    1.64244    1.12599
H     -1.88495    1.35735   -0.20926
H      1.01473    1.56983   -0.50433
H     -0.26233    1.03636   -1.79952
