16

O      2.55678   -0.48696    1.23918
O      0.89919   -0.57982    0.80912
C      0.56415   -0.49836   -0.57711
C     -0.75835   -1.23541   -0.42779
C     -1.08711   -0.33396    0.72606
C     -0.94656    1.08793    0.27272
C      0.16370    0.95871   -0.80056
H      3.53124   -0.52660    0.98664
H      1.36161   -0.90501   -1.21402
H     -1.43617   -1.06023   -1.26165
H     -0.56300   -2.24005   -0.05631
H     -1.60898   -0.63585    1.63780
H     -0.55871    1.64166    1.12619
H     -1.88493    1.35644   -0.20980
H      1.01544    1.56848   -0.50357
H     -0.26291    1.03563   -1.79933
