16

O      1.82606   -1.56076    1.86735
O      0.89919   -0.57982    0.80912
C      0.56415   -0.49836   -0.57711
C     -0.75835   -1.23541   -0.42779
C     -1.08711   -0.33396    0.72606
C     -0.94656    1.08793    0.27272
C      0.16370    0.95871   -0.80056
H      1.81504   -2.23507    2.61575
H      1.36161   -0.90501   -1.21402
H     -0.56856   -2.24308   -0.06166
H     -1.43573   -1.05953   -1.26186
H     -1.60898   -0.63585    1.63780
H     -0.56039    1.64252    1.12640
H     -1.88552    1.35812   -0.20772
H      1.01931    1.56310   -0.50371
H     -0.25847    1.04199   -1.80071
