16

O      2.52085   -0.19350    1.21180
O      0.89919   -0.57982    0.80912
C      0.56415   -0.49836   -0.57711
C     -0.75835   -1.23541   -0.42779
C     -1.08711   -0.33396    0.72606
C     -0.94656    1.08793    0.27272
C      0.16370    0.95871   -0.80056
H      3.42986    0.12249    0.91387
H      1.36161   -0.90501   -1.21402
H     -0.56363   -2.24063   -0.05755
H     -1.43753   -1.06371   -1.26127
H     -1.60898   -0.63585    1.63780
H     -0.56214    1.64270    1.12707
H     -1.88583    1.35838   -0.20696
H      1.01199    1.57787   -0.51329
H     -0.26048    1.03418   -1.80048
