16

O      1.98921    0.32310    1.77751
O      0.89919   -0.57982    0.80912
C      0.56415   -0.49836   -0.57711
C     -0.75835   -1.23541   -0.42779
C     -1.08711   -0.33396    0.72606
C     -0.94656    1.08793    0.27272
C      0.16370    0.95871   -0.80056
H      2.47729    1.16761    2.02949
H      1.36161   -0.90501   -1.21402
H     -0.56249   -2.24025   -0.05710
H     -1.43771   -1.06394   -1.26117
H     -1.60898   -0.63585    1.63780
H     -1.88532    1.35219   -0.21140
H     -0.56900    1.65117    1.12458
H      1.01296    1.58053   -0.52203
H     -0.26561    1.02855   -1.79870
