16

O      2.44991   -0.34772    1.50381
O      0.89919   -0.57982    0.80912
C      0.56415   -0.49836   -0.57711
C     -0.75835   -1.23541   -0.42779
C     -1.08711   -0.33396    0.72606
C     -0.94656    1.08793    0.27272
C      0.16370    0.95871   -0.80056
H      3.05127   -0.36153    2.31194
H      1.36161   -0.90501   -1.21402
H     -0.56442   -2.24068   -0.05725
H     -1.43622   -1.06279   -1.26215
H     -1.60898   -0.63585    1.63780
H     -0.56212    1.64340    1.12661
H     -1.88551    1.35731   -0.20819
H     -0.25879    1.03934   -1.80079
H      1.01683    1.56851   -0.50764
