16

O      2.56364   -0.48840    1.21217
O      0.89919   -0.57982    0.80912
C      0.56415   -0.49836   -0.57711
C     -0.75835   -1.23541   -0.42779
C     -1.08711   -0.33396    0.72606
C     -0.94656    1.08793    0.27272
C      0.16370    0.95871   -0.80056
H      3.51527   -0.34202    0.91572
H      1.36161   -0.90501   -1.21402
H     -1.43633   -1.06105   -1.26169
H     -0.56345   -2.24031   -0.05677
H     -1.60898   -0.63585    1.63780
H     -0.55971    1.64199    1.12643
H     -1.88515    1.35701   -0.20905
H      1.01517    1.56959   -0.50509
H     -0.26184    1.03613   -1.79975
