16

O      2.20771   -0.09029    1.80376
O      0.89919   -0.57982    0.80912
C      0.56415   -0.49836   -0.57711
C     -0.75835   -1.23541   -0.42779
C     -1.08711   -0.33396    0.72606
C     -0.94656    1.08793    0.27272
C      0.16370    0.95871   -0.80056
H      3.01316    0.31218    2.25564
H      1.36161   -0.90501   -1.21402
H     -0.58281   -2.23699   -0.03858
H     -1.40871   -1.06962   -1.28511
H     -1.60898   -0.63585    1.63780
H     -0.57041    1.64819    1.12717
H     -1.88373    1.35038   -0.21544
H     -0.25387    1.04002   -1.80280
H      1.01429    1.56924   -0.50185
