16

O      2.13487   -0.11561    1.90402
O      0.89919   -0.57982    0.80912
C      0.56415   -0.49836   -0.57711
C     -0.75835   -1.23541   -0.42779
C     -1.08711   -0.33396    0.72606
C     -0.94656    1.08793    0.27272
C      0.16370    0.95871   -0.80056
H      2.94224   -0.24628    2.49222
H      1.36161   -0.90501   -1.21402
H     -1.43597   -1.05958   -1.26168
H     -0.56200   -2.23963   -0.05569
H     -1.60898   -0.63585    1.63780
H     -0.56116    1.64418    1.12567
H     -1.88514    1.35525   -0.21006
H     -0.26150    1.03745   -1.79979
H      1.01728    1.56679   -0.50541
