16

O      2.05041   -1.74924    1.30746
O      0.89919   -0.57982    0.80912
C      0.56415   -0.49836   -0.57711
C     -0.75835   -1.23541   -0.42779
C     -1.08711   -0.33396    0.72606
C     -0.94656    1.08793    0.27272
C      0.16370    0.95871   -0.80056
H      2.39572   -2.67569    1.11418
H      1.36161   -0.90501   -1.21402
H     -0.58163   -2.24561   -0.06211
H     -1.43156   -1.06373   -1.26610
H     -1.60898   -0.63585    1.63780
H     -0.56188    1.64311    1.12669
H     -1.88574    1.35829   -0.20719
H      1.01940    1.56333   -0.50442
H     -0.25601    1.04497   -1.80149
