16

O      2.42599   -1.20557    1.27658
O      0.89919   -0.57982    0.80912
C      0.56415   -0.49836   -0.57711
C     -0.75835   -1.23541   -0.42779
C     -1.08711   -0.33396    0.72606
C     -0.94656    1.08793    0.27272
C      0.16370    0.95871   -0.80056
H      3.40806   -1.33090    1.09016
H      1.36161   -0.90501   -1.21402
H     -0.56428   -2.24014   -0.05587
H     -1.43481   -1.05712   -1.26210
H     -1.60898   -0.63585    1.63780
H     -0.55258    1.63899    1.12511
H     -1.88340    1.35264   -0.21484
H      1.01678    1.56229   -0.49491
H     -0.26643    1.03598   -1.79779
