16

O      1.22602   -1.49713    2.22082
O      0.89919   -0.57982    0.80912
C      0.56415   -0.49836   -0.57711
C     -0.75835   -1.23541   -0.42779
C     -1.08711   -0.33396    0.72606
C     -0.94656    1.08793    0.27272
C      0.16370    0.95871   -0.80056
H      1.37366   -2.15679    2.96779
H      1.36161   -0.90501   -1.21402
H     -0.57223   -2.23973   -0.05075
H     -1.41900   -1.05939   -1.27514
H     -1.60898   -0.63585    1.63780
H     -0.55114    1.63977    1.12394
H     -1.88795    1.35921   -0.20231
H      1.02363    1.55675   -0.50333
H     -0.26760    1.04629   -1.79643
