16

O      1.37899    0.05590    2.32795
O      0.89919   -0.57982    0.80912
C      0.56415   -0.49836   -0.57711
C     -0.75835   -1.23541   -0.42779
C     -1.08711   -0.33396    0.72606
C     -0.94656    1.08793    0.27272
C      0.16370    0.95871   -0.80056
H      1.48897    0.80069    2.99735
H      1.36161   -0.90501   -1.21402
H     -1.43572   -1.06412   -1.26282
H     -0.56440   -2.24090   -0.05787
H     -1.60898   -0.63585    1.63780
H     -0.57956    1.66505    1.11989
H     -1.88540    1.34446   -0.21540
H      1.01808    1.56581   -0.50568
H     -0.25475    1.04111   -1.80234
