16

O      2.51307   -0.16475    1.21447
O      0.89919   -0.57982    0.80912
C      0.56415   -0.49836   -0.57711
C     -0.75835   -1.23541   -0.42779
C     -1.08711   -0.33396    0.72606
C     -0.94656    1.08793    0.27272
C      0.16370    0.95871   -0.80056
H      3.40889    0.20038    0.93323
H      1.36161   -0.90501   -1.21402
H     -1.43647   -1.05923   -1.26120
H     -0.56080   -2.23909   -0.05488
H     -1.60898   -0.63585    1.63780
H     -1.88475    1.35656   -0.21009
H     -0.55920    1.64181    1.12632
H      1.01066    1.57799   -0.50966
H     -0.26426    1.03071   -1.79912
