16

O      1.10477   -1.79980    1.99679
O      0.89919   -0.57982    0.80912
C      0.56415   -0.49836   -0.57711
C     -0.75835   -1.23541   -0.42779
C     -1.08711   -0.33396    0.72606
C     -0.94656    1.08793    0.27272
C      0.16370    0.95871   -0.80056
H      0.72842   -2.56739    2.52980
H      1.36161   -0.90501   -1.21402
H     -0.57380   -2.25011   -0.07882
H     -1.43460   -1.03927   -1.25826
H     -1.60898   -0.63585    1.63780
H     -1.88407    1.35600   -0.21170
H     -0.55573    1.64064    1.12549
H      1.01849    1.55989   -0.49494
H     -0.26359    1.03899   -1.79877
