16

O      2.30805   -1.09564    1.63992
O      0.89919   -0.57982    0.80912
C      0.56415   -0.49836   -0.57711
C     -0.75835   -1.23541   -0.42779
C     -1.08711   -0.33396    0.72606
C     -0.94656    1.08793    0.27272
C      0.16370    0.95871   -0.80056
H      2.64562   -1.40281    2.53803
H      1.36161   -0.90501   -1.21402
H     -0.56616   -2.24039   -0.05558
H     -1.43304   -1.05981   -1.26410
H     -1.60898   -0.63585    1.63780
H     -0.55980    1.64257    1.12610
H     -1.88482    1.35582   -0.21036
H      1.01830    1.56284   -0.50026
H     -0.26035    1.04014   -1.80006
