16

O      1.42379   -1.09914    2.35711
O      0.89919   -0.57982    0.80912
C      0.56415   -0.49836   -0.57711
C     -0.75835   -1.23541   -0.42779
C     -1.08711   -0.33396    0.72606
C     -0.94656    1.08793    0.27272
C      0.16370    0.95871   -0.80056
H      2.06132   -1.22976    3.12614
H      1.36161   -0.90501   -1.21402
H     -1.43632   -1.06025   -1.26153
H     -0.56503   -2.24158   -0.05940
H     -1.60898   -0.63585    1.63780
H     -1.88481    1.35243   -0.21224
H     -0.55717    1.63991    1.12662
H      1.01922    1.56561   -0.50863
H     -0.25495    1.04596   -1.80184
