16

O      1.28038   -0.37766    2.46894
O      0.89919   -0.57982    0.80912
C      0.56415   -0.49836   -0.57711
C     -0.75835   -1.23541   -0.42779
C     -1.08711   -0.33396    0.72606
C     -0.94656    1.08793    0.27272
C      0.16370    0.95871   -0.80056
H      1.30551   -0.59523    3.45227
H      1.36161   -0.90501   -1.21402
H     -0.56354   -2.24061   -0.05755
H     -1.43552   -1.06046   -1.26223
H     -1.60898   -0.63585    1.63780
H     -0.56423    1.64950    1.12356
H     -1.88501    1.35219   -0.21199
H      1.01856    1.56298   -0.50131
H     -0.25953    1.03990   -1.80043
