16

O      2.05576    0.29193    1.72760
O      0.89919   -0.57982    0.80912
C      0.56415   -0.49836   -0.57711
C     -0.75835   -1.23541   -0.42779
C     -1.08711   -0.33396    0.72606
C     -0.94656    1.08793    0.27272
C      0.16370    0.95871   -0.80056
H      2.59986    1.11136    1.94533
H      1.36161   -0.90501   -1.21402
H     -1.43053   -1.06443   -1.26707
H     -0.56736   -2.23927   -0.05194
H     -1.60898   -0.63585    1.63780
H     -1.88575    1.35270   -0.21028
H     -0.56751    1.64923    1.12520
H      1.01354    1.57835   -0.51896
H     -0.26328    1.03256   -1.79941
