16

O      2.53332   -0.26512    1.22356
O      0.89919   -0.57982    0.80912
C      0.56415   -0.49836   -0.57711
C     -0.75835   -1.23541   -0.42779
C     -1.08711   -0.33396    0.72606
C     -0.94656    1.08793    0.27272
C      0.16370    0.95871   -0.80056
H      3.46343    0.00188    0.94334
H      1.36161   -0.90501   -1.21402
H     -0.56400   -2.24078   -0.05776
H     -1.43730   -1.06367   -1.26145
H     -1.60898   -0.63585    1.63780
H     -0.56230    1.64285    1.12705
H     -1.88586    1.35846   -0.20685
H      1.01343    1.57528   -0.51199
H     -0.25962    1.03596   -1.80070
