16

O      2.49841   -1.03983    1.22393
O      0.89919   -0.57982    0.80912
C      0.56415   -0.49836   -0.57711
C     -0.75835   -1.23541   -0.42779
C     -1.08711   -0.33396    0.72606
C     -0.94656    1.08793    0.27272
C      0.16370    0.95871   -0.80056
H      3.37712   -1.45282    0.95518
H      1.36161   -0.90501   -1.21402
H     -1.43614   -1.06246   -1.26214
H     -0.56613   -2.24139   -0.05830
H     -1.60898   -0.63585    1.63780
H     -0.56154    1.64272    1.12679
H     -1.88571    1.35838   -0.20718
H      1.01833    1.56548   -0.50573
H     -0.25788    1.04137   -1.80101
