16
Generated by autodE on: 2025-05-23. charge = 0 mult = 2 
O      2.81420   -0.46640    0.05580
O      1.71830   -0.69710    0.78310
C      0.64750   -0.26740    0.04610
C     -0.44130   -1.28620   -0.16350
C     -1.59330   -0.42720   -0.64600
C     -1.27260    0.99060   -0.24280
C     -0.16780    0.80160    0.78740
H      3.14330    0.42480    0.36350
H      0.91090    0.15480   -0.93920
H     -0.73210   -1.69110    0.84250
H     -0.18550   -2.09120   -0.87820
H     -1.69480   -0.52330   -1.73270
H     -2.14230    1.52330    0.17790
H     -0.81890    1.56940   -1.07940
H     -0.59830    0.28670    1.64870
H      0.41290    1.69870    0.97670
