16
Generated by autodE on: 2025-05-23. charge = 0 mult = 2 
O      2.55120   -0.87580    0.63990
O      1.34510   -0.39380    0.80660
C      0.60490   -0.37660   -0.36760
C     -0.63590   -1.22860   -0.18860
C     -1.71810   -0.28240    0.27130
C     -1.18720    1.11870    0.15950
C      0.10630    1.02800   -0.64200
H      3.23000   -0.25970    0.97190
H      1.21640   -0.78110   -1.18550
H     -0.49520   -1.99250    0.58210
H     -0.98740   -1.69580   -1.12160
H     -1.99810   -0.44000    1.32890
H     -0.92430    1.53530    1.16000
H     -1.86730    1.80240   -0.35800
H      0.85440    1.76740   -0.31580
H     -0.09450    1.07470   -1.74110
