14
Coordinates from ORCA-job 5_0_orca
  O   -2.19867000000000     -0.95154000000000      0.99381000000000
  O   -0.76850000000000      0.12633000000000      1.01754000000000
  C   -0.65793000000000      0.58121000000000     -0.28553000000000
  C   0.52241000000000      1.40626000000000      0.13336000000000
  C   1.59340000000000      0.51020000000000      0.22482000000000
  C   1.18135000000000     -0.71033000000000     -0.27482000000000
  C   -0.09687000000000     -0.60480000000000     -1.03843000000000
  H   -2.15557000000000     -1.07064000000000      1.95402000000000
  H   -1.55224000000000      1.09292000000000     -0.67104000000000
  H   0.46002000000000      2.42269000000000      0.52040000000000
  H   2.55457000000000      0.70750000000000      0.70132000000000
  H   1.79498000000000     -1.61428000000000     -0.24579000000000
  H   0.09171000000000     -0.43038000000000     -2.11348000000000
  H   -0.76867000000000     -1.46504000000000     -0.91620000000000
