14
Coordinates from ORCA-job 5_2_orca
  O   -2.12718294000000     -0.89280762000000      1.00076212000000
  O   -0.91551320000000      0.09920053000000      1.05928857000000
  C   -0.65892869000000      0.57797006000000     -0.27778633000000
  C   0.52369701000000      1.40228490000000      0.13340776000000
  C   1.59255476000000      0.50672729000000      0.22315017000000
  C   1.24327006000000     -0.72237259000000     -0.32788343000000
  C   -0.08944336000000     -0.60772219000000     -1.03800262000000
  H   -2.15904576000000     -1.05852417000000      1.95692658000000
  H   -1.55294922000000      1.08946767000000     -0.67227807000000
  H   0.45603816000000      2.41921535000000      0.52553891000000
  H   2.55395900000000      0.70826806000000      0.70282538000000
  H   1.80744176000000     -1.62586431000000     -0.25073852000000
  H   0.09154722000000     -0.42863654000000     -2.11558163000000
  H   -0.76544182000000     -1.46717622000000     -0.91987984000000
