14
Coordinates from ORCA-job 22_0_orca
  O   -2.58696031000000      0.68459613000000      1.89533995000000
  O   -0.42765446000000     -0.40411629000000      0.81848420000000
  C   -0.72822825000000      0.14143748000000     -0.43408340000000
  C   0.15265636000000      0.86188123000000      0.51854040000000
  C   1.54113778000000      0.46402744000000      0.23214614000000
  C   1.37999044000000     -0.61611008000000     -0.53598465000000
  C   0.12295577000000     -0.67421660000000     -1.34646934000000
  H   -2.13834494000000     -0.12945873000000      2.17005372000000
  H   -1.76673833000000      0.42933783000000     -0.62139265000000
  H   -0.19012180000000      1.71106638000000      1.11339208000000
  H   2.43275425000000      0.77121547000000      0.77605711000000
  H   2.20825738000000     -1.29298964000000     -0.77485021000000
  H   0.28803984000000     -0.25627660000000     -2.35374645000000
  H   -0.28774992000000     -1.69027636000000     -1.45748925000000
