14
Generated by autodE on: 2025-05-23. charge = 0 mult = 2 
O      2.51410   -0.24010    0.54140
O      1.39460   -0.04790   -0.14640
C      0.25700   -0.17020    0.65280
C     -0.56360    1.07890    0.48970
C     -1.31510    0.99080   -0.60040
C     -1.05520   -0.32880   -1.25440
C     -0.64720   -1.18120   -0.04930
H      3.25010    0.29820    0.11490
H      0.45010   -0.39940    1.69590
H     -0.50170    1.89850    1.19980
H     -2.01200    1.73680   -0.97930
H     -0.12920   -0.19780   -1.87960
H     -1.55350   -1.36830    0.55930
H     -0.08860   -2.06950   -0.34440
