14
Coordinates from ORCA-job 14_1_orca
  O   -2.45916557000000     -0.20832121000000      1.62162908000000
  O   -0.58734450000000     -0.28118484000000      0.90187847000000
  C   -0.74066372000000      0.22488833000000     -0.43765529000000
  C   0.14930316000000      0.90937972000000      0.52473726000000
  C   1.52400396000000      0.42744052000000      0.28358156000000
  C   1.48314234000000     -0.63862024000000     -0.61882436000000
  C   0.09698729000000     -0.66081665000000     -1.31426313000000
  H   -2.10126490000000      0.38109838000000      2.29743637000000
  H   -1.74300173000000      0.57681061000000     -0.66907728000000
  H   -0.13490557000000      1.80345001000000      1.08267717000000
  H   2.41640057000000      0.70990021000000      0.83219298000000
  H   2.18352345000000     -1.30941440000000     -0.77041067000000
  H   0.25920835000000     -0.27420043000000     -2.33928600000000
  H   -0.34603618000000     -1.66037497000000     -1.39406641000000
