14
Coordinates from ORCA-job 14_2_orca
  O   -2.46555215000000     -0.20863065000000      1.62282431000000
  O   -0.58665994000000     -0.27660903000000      0.89741993000000
  C   -0.73584501000000      0.22044375000000     -0.43161327000000
  C   0.14939944000000      0.90482646000000      0.52500561000000
  C   1.52690626000000      0.41357319000000      0.27131876000000
  C   1.45056044000000     -0.60092028000000     -0.60444013000000
  C   0.10487406000000     -0.66062211000000     -1.31466170000000
  H   -2.10130009000000      0.38194823000000      2.29855965000000
  H   -1.74389859000000      0.57710967000000     -0.66967277000000
  H   -0.13413527000000      1.80440964000000      1.08210699000000
  H   2.41687580000000      0.71071677000000      0.83377220000000
  H   2.20801946000000     -1.33057649000000     -0.77694984000000
  H   0.25720530000000     -0.27425546000000     -2.33903086000000
  H   -0.34623463000000     -1.66140003000000     -1.39410181000000
