16
Coordinates from ORCA-job p0_C6H10_opt_orca
  C   0.25336813427075      1.49649374117656     -0.31356462133528
  C   -1.02095709932905      1.16322928542935     -0.07894670745368
  C   -1.46023556706754     -0.23098945233731      0.25954312630720
  C   -0.28404432359260     -1.12758519029635      0.63506839505220
  C   0.87931222561854     -0.93420764166591     -0.33077565041458
  C   1.38068678502332      0.50639534569529     -0.30026838271328
  H   0.50226920994338      2.54116638520630     -0.53017312002493
  H   -1.79464419749321      1.93718961717997     -0.13048354191164
  H   -2.19672267957394     -0.19908942588967      1.08066963464097
  H   -2.00728167267379     -0.65972579078108     -0.60195912583308
  H   0.05143155727090     -0.87582828391907      1.65672376947785
  H   -0.60020975929284     -2.18238962648802      0.66109749187178
  H   1.70080997428044     -1.63036150990112     -0.09884644349588
  H   0.54093469111489     -1.17784056890719     -1.35344250248244
  H   2.00267294626886      0.67577106925949      0.59963832858654
  H   2.05270976523187      0.69807204623877     -1.15428068027177
