6
Coordinates from ORCA-job r1_C2H4_opt_orca
  C   -0.63016908844325     -0.20737777858211     -0.05023253437617
  C   0.63012897184987      0.20737764076983      0.05019786835278
  H   -1.40037813660304      0.40492615590704     -0.52915446302556
  H   -0.94921020704272     -1.17778070743131      0.34225498566978
  H   1.40034212380105     -0.40492313149698      0.52911818544382
  H   0.94918634643810      1.17777782083353     -0.34228405206464
