14
Coordinates from ORCA-job 3_0_orca
  O   -2.39849000000000     -0.77514000000000      0.89316000000000
  O   -1.01364000000000      0.14896000000000      1.11434000000000
  C   -0.64662000000000      0.54475000000000     -0.17376000000000
  C   0.55317000000000      1.37528000000000      0.19241000000000
  C   1.66365000000000      0.53565000000000      0.17856000000000
  C   1.32194000000000     -0.69476000000000     -0.36428000000000
  C   -0.06777000000000     -0.66237000000000     -0.90740000000000
  H   -2.37355000000000     -1.13001000000000      1.79417000000000
  H   -1.47045000000000      1.07209000000000     -0.68277000000000
  H   0.49405000000000      2.39068000000000      0.58323000000000
  H   2.65627000000000      0.80202000000000      0.54709000000000
  H   2.00650000000000     -1.53801000000000     -0.47617000000000
  H   -0.05116000000000     -0.51477000000000     -2.00358000000000
  H   -0.67391000000000     -1.55427000000000     -0.69497000000000
