14
Coordinates from ORCA-job 3_1_orca
  O   -2.27225083000000     -0.70170700000000      0.91571800000000
  O   -1.14904489000000      0.07734825000000      1.10828062000000
  C   -0.64849956000000      0.54637469000000     -0.17648891000000
  C   0.55213887000000      1.37702276000000      0.18848111000000
  C   1.66128051000000      0.53443909000000      0.18085221000000
  C   1.34161270000000     -0.70490880000000     -0.37623483000000
  C   -0.06858313000000     -0.65988792000000     -0.91226504000000
  H   -2.36421075000000     -1.13040767000000      1.79942934000000
  H   -1.47322732000000      1.07333412000000     -0.68233936000000
  H   0.49371491000000      2.39281774000000      0.57883875000000
  H   2.65255546000000      0.79841155000000      0.55278675000000
  H   1.99836720000000     -1.54151620000000     -0.46626483000000
  H   -0.04583043000000     -0.51078152000000     -2.00741100000000
  H   -0.67814127000000     -1.55074935000000     -0.70377038000000
