14
Coordinates from ORCA-job 3_2_orca
  O   -2.28369840000000     -0.71057841000000      0.91675777000000
  O   -1.13668915000000      0.08751468000000      1.10932766000000
  C   -0.65126833000000      0.54369079000000     -0.17178063000000
  C   0.55119628000000      1.37475402000000      0.18917255000000
  C   1.66115363000000      0.53361464000000      0.17978864000000
  C   1.33684182000000     -0.69907344000000     -0.37618419000000
  C   -0.06634020000000     -0.66034579000000     -0.91131983000000
  H   -2.36296954000000     -1.12740895000000      1.79373104000000
  H   -1.47296150000000      1.07333363000000     -0.68313778000000
  H   0.49389958000000      2.39274506000000      0.57891691000000
  H   2.65282247000000      0.79882973000000      0.55272456000000
  H   2.00216961000000     -1.54553075000000     -0.46715634000000
  H   -0.04640740000000     -0.51073393000000     -2.00736813000000
  H   -0.67788283000000     -1.55108026000000     -0.70383014000000
