14
Coordinates from ORCA-job 13_0_orca
  O   -2.35501066000000     -0.29712770000000      1.63947248000000
  O   -0.54828580000000     -0.28722299000000      0.85845857000000
  C   -0.73683980000000      0.22124082000000     -0.42746072000000
  C   0.15962902000000      0.90865892000000      0.53332098000000
  C   1.52634470000000      0.42809551000000      0.27534490000000
  C   1.36648180000000     -0.61913532000000     -0.53590618000000
  C   0.09042730000000     -0.65049999000000     -1.31426617000000
  H   -2.13156651000000      0.44386056000000      2.22075275000000
  H   -1.74292919000000      0.57948416000000     -0.66258909000000
  H   -0.12098230000000      1.80746480000000      1.08818030000000
  H   2.42237454000000      0.70091945000000      0.83112642000000
  H   2.17836076000000     -1.31262206000000     -0.77857212000000
  H   0.24643514000000     -0.26773538000000     -2.33729717000000
  H   -0.35443901000000     -1.65528645000000     -1.39057062000000
