14
Coordinates from ORCA-job 13_2_orca
  O   -2.43428702000000     -0.30541705000000      1.67498344000000
  O   -0.57704929000000     -0.26585671000000      0.90375975000000
  C   -0.73552959000000      0.22370611000000     -0.42240049000000
  C   0.15868840000000      0.90805025000000      0.53014204000000
  C   1.53227542000000      0.41104911000000      0.26925024000000
  C   1.44802946000000     -0.60083614000000     -0.60883276000000
  C   0.09720996000000     -0.65440913000000     -1.31093609000000
  H   -2.13607108000000      0.45018703000000      2.21255656000000
  H   -1.74528136000000      0.57761937000000     -0.65788992000000
  H   -0.11743484000000      1.81072236000000      1.08717365000000
  H   2.42369657000000      0.69939244000000      0.83407087000000
  H   2.20145193000000     -1.33372475000000     -0.78640899000000
  H   0.24131016000000     -0.26538928000000     -2.33537852000000
  H   -0.35692771000000     -1.65474690000000     -1.38992868000000
