14
Coordinates from ORCA-job p0_C5H8O_opt_orca
  C   1.15162510314529      0.49915832872808      0.14591622545630
  C   0.40016325486342     -0.45664974571036      1.10847243224689
  C   -0.98053986434993     -0.34700072698131      0.44334411210099
  C   -0.68336159746989     -0.52145809706507     -1.05253964251359
  C   -0.04664055708960      0.84279699219381     -0.75241917146430
  O   -1.09620332369192      1.07540019293517      0.21402207488392
  H   1.53849982538094      1.39597139894510      0.64951634379587
  H   1.97717547443467      0.02193805011407     -0.40283765529517
  H   0.79406398397659     -1.48388087276803      1.11593264167639
  H   0.37097114738702     -0.08534792107738      2.14234558006908
  H   -1.84755726763405     -0.79904343763878      0.94471820428906
  H   -1.59089242939795     -0.42126198133468     -1.66164672987059
  H   -0.05211278941270     -1.35771649533045     -1.39141437984002
  H   0.06480902985810      1.63709430498983     -1.50351002553484
