16
Coordinates from ORCA-job r0_C5H9O2_opt_orca
  O   2.13731319105107     -1.13718955359990      1.12596952081399
  O   1.51767390931864      0.06137145654712      0.69663342487566
  C   0.71182187884087     -0.22501329571844     -0.43277740803967
  C   -0.43355852550273     -1.17933941661019     -0.08127998569119
  C   -1.49094908126703     -0.27705782431541      0.46054104283760
  C   -1.15627862953905      1.15847430348005      0.22844544929890
  C   0.01817438758099      1.09429516033504     -0.75762534285242
  H   3.04722040107573     -0.99386272750775      0.82826104941482
  H   1.35282938356188     -0.59936800156200     -1.25246391444608
  H   -0.09111254270649     -1.95690888403445      0.62082015135411
  H   -0.76796095097541     -1.71561285586571     -0.99321241802074
  H   -2.36196058341260     -0.62005495478921      1.02216445259774
  H   -0.83993572530031      1.64929062703966      1.17040305684581
  H   -2.00459218667983      1.75238617856822     -0.15444241789477
  H   0.71241645468017      1.94430836832968     -0.68713112384561
  H   -0.35080141072591      1.04448142970329     -1.79430554724815
