16
Coordinates from ORCA-job p0_C6H10_conf1_opt_orca
  C   0.25342481822719      1.49689197288601     -0.31402882789240
  C   -1.02123044321051      1.16359652758032     -0.07877468151684
  C   -1.45958630469160     -0.23112079391825      0.25981475396132
  C   -0.28375729311143     -1.12759922604446      0.63517042877189
  C   0.87908312748138     -0.93434744469574     -0.33087480500124
  C   1.38023934448740      0.50590995406353     -0.30038681720929
  H   0.50292991403442      2.54130001549264     -0.53125510688685
  H   -1.79540717555980      1.93712524321995     -0.12963806404189
  H   -2.19786857673220     -0.20021213527574      1.07939116212788
  H   -2.00541315323892     -0.65982086307628     -0.60277562708083
  H   0.05260995345192     -0.87394462623721      1.65637380320079
  H   -0.59981305925590     -2.18235177147156      0.66436166764533
  H   1.70068393215743     -1.63143711069067     -0.10212397808238
  H   0.53890855235585     -1.17668861362060     -1.35356319028118
  H   2.00083604598697      0.67480161437956      0.60085914072545
  H   2.05446030761780      0.69819725740850     -1.15254986843976
