16
Generated by autodE on: 2025-05-23. charge = 0 mult = 1 
C      0.25330    1.45480   -0.18650
C     -1.01710    1.11710    0.01220
C     -1.46320   -0.31270    0.11020
C     -0.26070   -1.03670    0.73300
C      0.82060   -0.96050   -0.32820
C      1.34970    0.45420   -0.33020
H      0.54520    2.49790   -0.25290
H     -1.72420    1.94860    0.10090
H     -2.35990   -0.41990    0.73580
H     -1.62850   -0.63640   -0.93650
H      0.12490   -0.41540    1.57580
H     -0.52220   -2.06690    1.02270
H      1.65340   -1.66120   -0.11930
H      0.31440   -1.18720   -1.29270
H      2.10240    0.56650    0.47860
H      1.81200    0.65810   -1.32290
