10
Generated by autodE on: 2025-05-23. charge = 0 mult = 1 
C     -1.81480    0.12870   -0.13730
C     -0.53480    0.48010   -0.32990
C      0.55440   -0.48360   -0.21760
C      1.80320   -0.11830   -0.41050
H     -2.62100    0.85580   -0.22340
H     -2.00340   -0.91110    0.10720
H     -0.33480    1.51500   -0.57430
H      0.30280   -1.50710    0.02890
H      2.05420    0.89250   -0.65420
H      2.59420   -0.85190   -0.32160
