14
Coordinates from ORCA-job 7_0_orca
  O   -2.22680311000000     -0.87593233000000      1.20423313000000
  O   -0.65726710000000     -0.02131879000000      0.95936375000000
  C   -0.67195248000000      0.47875997000000     -0.33153760000000
  C   0.42860347000000      1.30423308000000      0.24163011000000
  C   1.59009591000000      0.48734031000000      0.22853012000000
  C   1.25493125000000     -0.69028531000000     -0.38267354000000
  C   -0.03450431000000     -0.62624739000000     -1.13279758000000
  H   -2.30840540000000     -0.51313895000000      2.09884151000000
  H   -1.60501191000000      0.94987272000000     -0.66548818000000
  H   0.29153370000000      2.27040570000000      0.72820909000000
  H   2.52422592000000      0.69605949000000      0.75048649000000
  H   1.92919235000000     -1.54842571000000     -0.44795677000000
  H   0.14023748000000     -0.38108854000000     -2.19541188000000
  H   -0.65488222000000     -1.53013779000000     -1.05544510000000
