14
Coordinates from ORCA-job 7_2_orca
  O   -2.22127841000000     -0.87050440000000      1.20484636000000
  O   -0.75197073000000      0.02966809000000      1.02482165000000
  C   -0.66516425000000      0.47225260000000     -0.32266543000000
  C   0.42817354000000      1.28951393000000      0.24769383000000
  C   1.58765407000000      0.47735501000000      0.22233883000000
  C   1.32373384000000     -0.69473739000000     -0.44071195000000
  C   -0.02899210000000     -0.62224575000000     -1.13955879000000
  H   -2.30806002000000     -0.50769128000000      2.09888765000000
  H   -1.60585493000000      0.94512249000000     -0.66271936000000
  H   0.28592906000000      2.26189180000000      0.73048383000000
  H   2.52151919000000      0.69659768000000      0.75047507000000
  H   1.94384040000000     -1.56165783000000     -0.45107417000000
  H   0.13969788000000     -0.38329475000000     -2.20203107000000
  H   -0.64885474000000     -1.53192180000000     -1.06132332000000
